
---------- Begin Simulation Statistics ----------
final_tick                               175527338500                       # Number of ticks from beginning of simulation (restored from checkpoints and never reset)
host_inst_rate                                 305651                       # Simulator instruction rate (inst/s)
host_mem_usage                                 689836                       # Number of bytes of host memory used
host_op_rate                                   305662                       # Simulator op (including micro ops) rate (op/s)
host_seconds                                   327.17                       # Real time elapsed on the host
host_tick_rate                              536501147                       # Simulator tick rate (ticks/s)
sim_freq                                 1000000000000                       # Frequency of simulated ticks
sim_insts                                   100000000                       # Number of instructions simulated
sim_ops                                     100003637                       # Number of ops (including micro ops) simulated
sim_seconds                                  0.175527                       # Number of seconds simulated
sim_ticks                                175527338500                       # Number of ticks simulated
system.cpu.branchPred.BTBCorrect                    0                       # Number of correct BTB predictions (this stat may not work properly.
system.cpu.branchPred.BTBHitPct             99.524149                       # BTB Hit Percentage
system.cpu.branchPred.BTBHits                  596914                       # Number of BTB hits
system.cpu.branchPred.BTBLookups               599768                       # Number of BTB lookups
system.cpu.branchPred.RASInCorrect                  7                       # Number of incorrect RAS predictions.
system.cpu.branchPred.condIncorrect               868                       # Number of conditional branches incorrect
system.cpu.branchPred.condPredicted            599884                       # Number of conditional branches predicted
system.cpu.branchPred.indirectHits                164                       # Number of indirect target hits.
system.cpu.branchPred.indirectLookups             376                       # Number of indirect predictor lookups.
system.cpu.branchPred.indirectMisses              212                       # Number of indirect misses.
system.cpu.branchPred.lookups                  602010                       # Number of BP lookups
system.cpu.branchPred.usedRAS                     598                       # Number of times the RAS was used to get a target.
system.cpu.branchPredindirectMispredicted          111                       # Number of mispredicted indirect branches.
system.cpu.committedInsts                   100000000                       # Number of instructions committed
system.cpu.committedOps                     100003637                       # Number of ops (including micro ops) committed
system.cpu.cpi                               3.510547                       # CPI: cycles per instruction
system.cpu.discardedOps                          2690                       # Number of ops (including micro ops) which were discarded before commit
system.cpu.dtb.accesses                             0                       # DTB accesses
system.cpu.dtb.align_faults                         0                       # Number of TLB faults due to alignment restrictions
system.cpu.dtb.domain_faults                        0                       # Number of TLB faults due to domain restrictions
system.cpu.dtb.flush_entries                        0                       # Number of entries that have been flushed from TLB
system.cpu.dtb.flush_tlb                            0                       # Number of times complete TLB was flushed
system.cpu.dtb.flush_tlb_asid                       0                       # Number of times TLB was flushed by ASID
system.cpu.dtb.flush_tlb_mva                        0                       # Number of times TLB was flushed by MVA
system.cpu.dtb.flush_tlb_mva_asid                   0                       # Number of times TLB was flushed by MVA & ASID
system.cpu.dtb.hits                                 0                       # DTB hits
system.cpu.dtb.inst_accesses                        0                       # ITB inst accesses
system.cpu.dtb.inst_hits                            0                       # ITB inst hits
system.cpu.dtb.inst_misses                          0                       # ITB inst misses
system.cpu.dtb.misses                               0                       # DTB misses
system.cpu.dtb.perms_faults                         0                       # Number of TLB faults due to permissions restrictions
system.cpu.dtb.prefetch_faults                      0                       # Number of TLB faults due to prefetch
system.cpu.dtb.read_accesses                        0                       # DTB read accesses
system.cpu.dtb.read_hits                            0                       # DTB read hits
system.cpu.dtb.read_misses                          0                       # DTB read misses
system.cpu.dtb.stage2_mmu.stage2_tlb.accesses            0                       # DTB accesses
system.cpu.dtb.stage2_mmu.stage2_tlb.align_faults            0                       # Number of TLB faults due to alignment restrictions
system.cpu.dtb.stage2_mmu.stage2_tlb.domain_faults            0                       # Number of TLB faults due to domain restrictions
system.cpu.dtb.stage2_mmu.stage2_tlb.flush_entries            0                       # Number of entries that have been flushed from TLB
system.cpu.dtb.stage2_mmu.stage2_tlb.flush_tlb            0                       # Number of times complete TLB was flushed
system.cpu.dtb.stage2_mmu.stage2_tlb.flush_tlb_asid            0                       # Number of times TLB was flushed by ASID
system.cpu.dtb.stage2_mmu.stage2_tlb.flush_tlb_mva            0                       # Number of times TLB was flushed by MVA
system.cpu.dtb.stage2_mmu.stage2_tlb.flush_tlb_mva_asid            0                       # Number of times TLB was flushed by MVA & ASID
system.cpu.dtb.stage2_mmu.stage2_tlb.hits            0                       # DTB hits
system.cpu.dtb.stage2_mmu.stage2_tlb.inst_accesses            0                       # ITB inst accesses
system.cpu.dtb.stage2_mmu.stage2_tlb.inst_hits            0                       # ITB inst hits
system.cpu.dtb.stage2_mmu.stage2_tlb.inst_misses            0                       # ITB inst misses
system.cpu.dtb.stage2_mmu.stage2_tlb.misses            0                       # DTB misses
system.cpu.dtb.stage2_mmu.stage2_tlb.perms_faults            0                       # Number of TLB faults due to permissions restrictions
system.cpu.dtb.stage2_mmu.stage2_tlb.prefetch_faults            0                       # Number of TLB faults due to prefetch
system.cpu.dtb.stage2_mmu.stage2_tlb.read_accesses            0                       # DTB read accesses
system.cpu.dtb.stage2_mmu.stage2_tlb.read_hits            0                       # DTB read hits
system.cpu.dtb.stage2_mmu.stage2_tlb.read_misses            0                       # DTB read misses
system.cpu.dtb.stage2_mmu.stage2_tlb.walker.walkRequestOrigin_Requested::Data            0                       # Table walker requests started/completed, data/inst
system.cpu.dtb.stage2_mmu.stage2_tlb.walker.walkRequestOrigin_Requested::Inst            0                       # Table walker requests started/completed, data/inst
system.cpu.dtb.stage2_mmu.stage2_tlb.walker.walkRequestOrigin_Requested::total            0                       # Table walker requests started/completed, data/inst
system.cpu.dtb.stage2_mmu.stage2_tlb.walker.walkRequestOrigin_Completed::Data            0                       # Table walker requests started/completed, data/inst
system.cpu.dtb.stage2_mmu.stage2_tlb.walker.walkRequestOrigin_Completed::Inst            0                       # Table walker requests started/completed, data/inst
system.cpu.dtb.stage2_mmu.stage2_tlb.walker.walkRequestOrigin_Completed::total            0                       # Table walker requests started/completed, data/inst
system.cpu.dtb.stage2_mmu.stage2_tlb.walker.walkRequestOrigin::total            0                       # Table walker requests started/completed, data/inst
system.cpu.dtb.stage2_mmu.stage2_tlb.walker.walks            0                       # Table walker walks requested
system.cpu.dtb.stage2_mmu.stage2_tlb.write_accesses            0                       # DTB write accesses
system.cpu.dtb.stage2_mmu.stage2_tlb.write_hits            0                       # DTB write hits
system.cpu.dtb.stage2_mmu.stage2_tlb.write_misses            0                       # DTB write misses
system.cpu.dtb.walker.walkRequestOrigin_Requested::Data            0                       # Table walker requests started/completed, data/inst
system.cpu.dtb.walker.walkRequestOrigin_Requested::Inst            0                       # Table walker requests started/completed, data/inst
system.cpu.dtb.walker.walkRequestOrigin_Requested::total            0                       # Table walker requests started/completed, data/inst
system.cpu.dtb.walker.walkRequestOrigin_Completed::Data            0                       # Table walker requests started/completed, data/inst
system.cpu.dtb.walker.walkRequestOrigin_Completed::Inst            0                       # Table walker requests started/completed, data/inst
system.cpu.dtb.walker.walkRequestOrigin_Completed::total            0                       # Table walker requests started/completed, data/inst
system.cpu.dtb.walker.walkRequestOrigin::total            0                       # Table walker requests started/completed, data/inst
system.cpu.dtb.walker.walks                         0                       # Table walker walks requested
system.cpu.dtb.write_accesses                       0                       # DTB write accesses
system.cpu.dtb.write_hits                           0                       # DTB write hits
system.cpu.dtb.write_misses                         0                       # DTB write misses
system.cpu.fetch2.amo_instructions                  0                       # Number of memory atomic instructions successfully decoded
system.cpu.fetch2.fp_instructions                   0                       # Number of floating point instructions successfully decoded
system.cpu.fetch2.int_instructions           49411716                       # Number of integer instructions successfully decoded
system.cpu.fetch2.load_instructions          36901040                       # Number of memory load instructions successfully decoded
system.cpu.fetch2.store_instructions         13094489                       # Number of memory store instructions successfully decoded
system.cpu.fetch2.vec_instructions                  0                       # Number of SIMD instructions successfully decoded
system.cpu.idleCycles                       233748203                       # Total number of cycles that the object has spent stopped
system.cpu.ipc                               0.284856                       # IPC: instructions per cycle
system.cpu.itb.accesses                             0                       # DTB accesses
system.cpu.itb.align_faults                         0                       # Number of TLB faults due to alignment restrictions
system.cpu.itb.domain_faults                        0                       # Number of TLB faults due to domain restrictions
system.cpu.itb.flush_entries                        0                       # Number of entries that have been flushed from TLB
system.cpu.itb.flush_tlb                            0                       # Number of times complete TLB was flushed
system.cpu.itb.flush_tlb_asid                       0                       # Number of times TLB was flushed by ASID
system.cpu.itb.flush_tlb_mva                        0                       # Number of times TLB was flushed by MVA
system.cpu.itb.flush_tlb_mva_asid                   0                       # Number of times TLB was flushed by MVA & ASID
system.cpu.itb.hits                                 0                       # DTB hits
system.cpu.itb.inst_accesses                        0                       # ITB inst accesses
system.cpu.itb.inst_hits                            0                       # ITB inst hits
system.cpu.itb.inst_misses                          0                       # ITB inst misses
system.cpu.itb.misses                               0                       # DTB misses
system.cpu.itb.perms_faults                         0                       # Number of TLB faults due to permissions restrictions
system.cpu.itb.prefetch_faults                      0                       # Number of TLB faults due to prefetch
system.cpu.itb.read_accesses                        0                       # DTB read accesses
system.cpu.itb.read_hits                            0                       # DTB read hits
system.cpu.itb.read_misses                          0                       # DTB read misses
system.cpu.itb.stage2_mmu.stage2_tlb.accesses            0                       # DTB accesses
system.cpu.itb.stage2_mmu.stage2_tlb.align_faults            0                       # Number of TLB faults due to alignment restrictions
system.cpu.itb.stage2_mmu.stage2_tlb.domain_faults            0                       # Number of TLB faults due to domain restrictions
system.cpu.itb.stage2_mmu.stage2_tlb.flush_entries            0                       # Number of entries that have been flushed from TLB
system.cpu.itb.stage2_mmu.stage2_tlb.flush_tlb            0                       # Number of times complete TLB was flushed
system.cpu.itb.stage2_mmu.stage2_tlb.flush_tlb_asid            0                       # Number of times TLB was flushed by ASID
system.cpu.itb.stage2_mmu.stage2_tlb.flush_tlb_mva            0                       # Number of times TLB was flushed by MVA
system.cpu.itb.stage2_mmu.stage2_tlb.flush_tlb_mva_asid            0                       # Number of times TLB was flushed by MVA & ASID
system.cpu.itb.stage2_mmu.stage2_tlb.hits            0                       # DTB hits
system.cpu.itb.stage2_mmu.stage2_tlb.inst_accesses            0                       # ITB inst accesses
system.cpu.itb.stage2_mmu.stage2_tlb.inst_hits            0                       # ITB inst hits
system.cpu.itb.stage2_mmu.stage2_tlb.inst_misses            0                       # ITB inst misses
system.cpu.itb.stage2_mmu.stage2_tlb.misses            0                       # DTB misses
system.cpu.itb.stage2_mmu.stage2_tlb.perms_faults            0                       # Number of TLB faults due to permissions restrictions
system.cpu.itb.stage2_mmu.stage2_tlb.prefetch_faults            0                       # Number of TLB faults due to prefetch
system.cpu.itb.stage2_mmu.stage2_tlb.read_accesses            0                       # DTB read accesses
system.cpu.itb.stage2_mmu.stage2_tlb.read_hits            0                       # DTB read hits
system.cpu.itb.stage2_mmu.stage2_tlb.read_misses            0                       # DTB read misses
system.cpu.itb.stage2_mmu.stage2_tlb.walker.walkRequestOrigin_Requested::Data            0                       # Table walker requests started/completed, data/inst
system.cpu.itb.stage2_mmu.stage2_tlb.walker.walkRequestOrigin_Requested::Inst            0                       # Table walker requests started/completed, data/inst
system.cpu.itb.stage2_mmu.stage2_tlb.walker.walkRequestOrigin_Requested::total            0                       # Table walker requests started/completed, data/inst
system.cpu.itb.stage2_mmu.stage2_tlb.walker.walkRequestOrigin_Completed::Data            0                       # Table walker requests started/completed, data/inst
system.cpu.itb.stage2_mmu.stage2_tlb.walker.walkRequestOrigin_Completed::Inst            0                       # Table walker requests started/completed, data/inst
system.cpu.itb.stage2_mmu.stage2_tlb.walker.walkRequestOrigin_Completed::total            0                       # Table walker requests started/completed, data/inst
system.cpu.itb.stage2_mmu.stage2_tlb.walker.walkRequestOrigin::total            0                       # Table walker requests started/completed, data/inst
system.cpu.itb.stage2_mmu.stage2_tlb.walker.walks            0                       # Table walker walks requested
system.cpu.itb.stage2_mmu.stage2_tlb.write_accesses            0                       # DTB write accesses
system.cpu.itb.stage2_mmu.stage2_tlb.write_hits            0                       # DTB write hits
system.cpu.itb.stage2_mmu.stage2_tlb.write_misses            0                       # DTB write misses
system.cpu.itb.walker.walkRequestOrigin_Requested::Data            0                       # Table walker requests started/completed, data/inst
system.cpu.itb.walker.walkRequestOrigin_Requested::Inst            0                       # Table walker requests started/completed, data/inst
system.cpu.itb.walker.walkRequestOrigin_Requested::total            0                       # Table walker requests started/completed, data/inst
system.cpu.itb.walker.walkRequestOrigin_Completed::Data            0                       # Table walker requests started/completed, data/inst
system.cpu.itb.walker.walkRequestOrigin_Completed::Inst            0                       # Table walker requests started/completed, data/inst
system.cpu.itb.walker.walkRequestOrigin_Completed::total            0                       # Table walker requests started/completed, data/inst
system.cpu.itb.walker.walkRequestOrigin::total            0                       # Table walker requests started/completed, data/inst
system.cpu.itb.walker.walks                         0                       # Table walker walks requested
system.cpu.itb.write_accesses                       0                       # DTB write accesses
system.cpu.itb.write_hits                           0                       # DTB write hits
system.cpu.itb.write_misses                         0                       # DTB write misses
system.cpu.numCycles                        351054677                       # number of cpu cycles simulated
system.cpu.numFetchSuspends                         0                       # Number of times Execute suspended instruction fetching
system.cpu.numWorkItemsCompleted                    0                       # number of work items this cpu completed
system.cpu.numWorkItemsStarted                      0                       # number of work items this cpu started
system.cpu.op_class_0::No_OpClass                   0      0.00%      0.00% # Class of committed instruction
system.cpu.op_class_0::IntAlu                50006957     50.01%     50.01% # Class of committed instruction
system.cpu.op_class_0::IntMult                     85      0.00%     50.01% # Class of committed instruction
system.cpu.op_class_0::IntDiv                       0      0.00%     50.01% # Class of committed instruction
system.cpu.op_class_0::FloatAdd                     0      0.00%     50.01% # Class of committed instruction
system.cpu.op_class_0::FloatCmp                     0      0.00%     50.01% # Class of committed instruction
system.cpu.op_class_0::FloatCvt                     0      0.00%     50.01% # Class of committed instruction
system.cpu.op_class_0::FloatMult                    0      0.00%     50.01% # Class of committed instruction
system.cpu.op_class_0::FloatMultAcc                 0      0.00%     50.01% # Class of committed instruction
system.cpu.op_class_0::FloatDiv                     0      0.00%     50.01% # Class of committed instruction
system.cpu.op_class_0::FloatMisc                    0      0.00%     50.01% # Class of committed instruction
system.cpu.op_class_0::FloatSqrt                    0      0.00%     50.01% # Class of committed instruction
system.cpu.op_class_0::SimdAdd                      0      0.00%     50.01% # Class of committed instruction
system.cpu.op_class_0::SimdAddAcc                   0      0.00%     50.01% # Class of committed instruction
system.cpu.op_class_0::SimdAlu                      0      0.00%     50.01% # Class of committed instruction
system.cpu.op_class_0::SimdCmp                      0      0.00%     50.01% # Class of committed instruction
system.cpu.op_class_0::SimdCvt                      0      0.00%     50.01% # Class of committed instruction
system.cpu.op_class_0::SimdMisc                     0      0.00%     50.01% # Class of committed instruction
system.cpu.op_class_0::SimdMult                     0      0.00%     50.01% # Class of committed instruction
system.cpu.op_class_0::SimdMultAcc                  0      0.00%     50.01% # Class of committed instruction
system.cpu.op_class_0::SimdShift                    0      0.00%     50.01% # Class of committed instruction
system.cpu.op_class_0::SimdShiftAcc                 0      0.00%     50.01% # Class of committed instruction
system.cpu.op_class_0::SimdDiv                      0      0.00%     50.01% # Class of committed instruction
system.cpu.op_class_0::SimdSqrt                     0      0.00%     50.01% # Class of committed instruction
system.cpu.op_class_0::SimdFloatAdd                 0      0.00%     50.01% # Class of committed instruction
system.cpu.op_class_0::SimdFloatAlu                 0      0.00%     50.01% # Class of committed instruction
system.cpu.op_class_0::SimdFloatCmp                 2      0.00%     50.01% # Class of committed instruction
system.cpu.op_class_0::SimdFloatCvt                 0      0.00%     50.01% # Class of committed instruction
system.cpu.op_class_0::SimdFloatDiv                 0      0.00%     50.01% # Class of committed instruction
system.cpu.op_class_0::SimdFloatMisc               22      0.00%     50.01% # Class of committed instruction
system.cpu.op_class_0::SimdFloatMult                0      0.00%     50.01% # Class of committed instruction
system.cpu.op_class_0::SimdFloatMultAcc             0      0.00%     50.01% # Class of committed instruction
system.cpu.op_class_0::SimdFloatSqrt                0      0.00%     50.01% # Class of committed instruction
system.cpu.op_class_0::SimdReduceAdd                0      0.00%     50.01% # Class of committed instruction
system.cpu.op_class_0::SimdReduceAlu                0      0.00%     50.01% # Class of committed instruction
system.cpu.op_class_0::SimdReduceCmp                0      0.00%     50.01% # Class of committed instruction
system.cpu.op_class_0::SimdFloatReduceAdd            0      0.00%     50.01% # Class of committed instruction
system.cpu.op_class_0::SimdFloatReduceCmp            0      0.00%     50.01% # Class of committed instruction
system.cpu.op_class_0::SimdAes                      0      0.00%     50.01% # Class of committed instruction
system.cpu.op_class_0::SimdAesMix                   0      0.00%     50.01% # Class of committed instruction
system.cpu.op_class_0::SimdSha1Hash                 0      0.00%     50.01% # Class of committed instruction
system.cpu.op_class_0::SimdSha1Hash2                0      0.00%     50.01% # Class of committed instruction
system.cpu.op_class_0::SimdSha256Hash               0      0.00%     50.01% # Class of committed instruction
system.cpu.op_class_0::SimdSha256Hash2              0      0.00%     50.01% # Class of committed instruction
system.cpu.op_class_0::SimdShaSigma2                0      0.00%     50.01% # Class of committed instruction
system.cpu.op_class_0::SimdShaSigma3                0      0.00%     50.01% # Class of committed instruction
system.cpu.op_class_0::SimdPredAlu                  0      0.00%     50.01% # Class of committed instruction
system.cpu.op_class_0::MemRead               36900878     36.90%     86.90% # Class of committed instruction
system.cpu.op_class_0::MemWrite              13095693     13.10%    100.00% # Class of committed instruction
system.cpu.op_class_0::FloatMemRead                 0      0.00%    100.00% # Class of committed instruction
system.cpu.op_class_0::FloatMemWrite                0      0.00%    100.00% # Class of committed instruction
system.cpu.op_class_0::IprAccess                    0      0.00%    100.00% # Class of committed instruction
system.cpu.op_class_0::InstPrefetch                 0      0.00%    100.00% # Class of committed instruction
system.cpu.op_class_0::total                100003637                       # Class of committed instruction
system.cpu.tickCycles                       117306474                       # Number of cycles that the object actually ticked
system.cpu.workload.numSyscalls                    18                       # Number of system calls
system.membus.snoop_filter.hit_multi_requests            0                       # Number of requests hitting in the snoop filter with multiple (>1) holders of the requested data.
system.membus.snoop_filter.hit_multi_snoops            0                       # Number of snoops hitting in the snoop filter with multiple (>1) holders of the requested data.
system.membus.snoop_filter.hit_single_requests      1471720                       # Number of requests hitting in the snoop filter with a single holder of the requested data.
system.membus.snoop_filter.hit_single_snoops            0                       # Number of snoops hitting in the snoop filter with a single holder of the requested data.
system.membus.snoop_filter.tot_requests       2960172                       # Total number of requests made to the snoop filter.
system.membus.snoop_filter.tot_snoops               0                       # Total number of snoops made to the snoop filter.
system.tol2bus.snoop_filter.hit_multi_requests         5844                       # Number of requests hitting in the snoop filter with multiple (>1) holders of the requested data.
system.tol2bus.snoop_filter.hit_multi_snoops            0                       # Number of snoops hitting in the snoop filter with multiple (>1) holders of the requested data.
system.tol2bus.snoop_filter.hit_single_requests      1507518                       # Number of requests hitting in the snoop filter with a single holder of the requested data.
system.tol2bus.snoop_filter.hit_single_snoops          348                       # Number of snoops hitting in the snoop filter with a single holder of the requested data.
system.tol2bus.snoop_filter.tot_requests      3016408                       # Total number of requests made to the snoop filter.
system.tol2bus.snoop_filter.tot_snoops            348                       # Total number of snoops made to the snoop filter.
system.membus.pwrStateResidencyTicks::UNDEFINED 175527338500                       # Cumulative time (in ticks) in various power states
system.membus.trans_dist::ReadResp                601                       # Transaction distribution
system.membus.trans_dist::WritebackDirty      1471486                       # Transaction distribution
system.membus.trans_dist::CleanEvict              234                       # Transaction distribution
system.membus.trans_dist::ReadExReq           1487851                       # Transaction distribution
system.membus.trans_dist::ReadExResp          1487851                       # Transaction distribution
system.membus.trans_dist::ReadSharedReq           601                       # Transaction distribution
system.membus.pkt_count_system.l2.mem_side::system.mem_ctrls.port      4448624                       # Packet count per connected master and slave (bytes)
system.membus.pkt_count::total                4448624                       # Packet count per connected master and slave (bytes)
system.membus.pkt_size_system.l2.mem_side::system.mem_ctrls.port    189436032                       # Cumulative packet size per connected master and slave (bytes)
system.membus.pkt_size::total               189436032                       # Cumulative packet size per connected master and slave (bytes)
system.membus.snoops                                0                       # Total snoops (count)
system.membus.snoopTraffic                          0                       # Total snoop traffic (bytes)
system.membus.snoop_fanout::samples           1488452                       # Request fanout histogram
system.membus.snoop_fanout::mean                    0                       # Request fanout histogram
system.membus.snoop_fanout::stdev                   0                       # Request fanout histogram
system.membus.snoop_fanout::underflows              0      0.00%      0.00% # Request fanout histogram
system.membus.snoop_fanout::0                 1488452    100.00%    100.00% # Request fanout histogram
system.membus.snoop_fanout::1                       0      0.00%    100.00% # Request fanout histogram
system.membus.snoop_fanout::overflows               0      0.00%    100.00% # Request fanout histogram
system.membus.snoop_fanout::min_value               0                       # Request fanout histogram
system.membus.snoop_fanout::max_value               0                       # Request fanout histogram
system.membus.snoop_fanout::total             1488452                       # Request fanout histogram
system.membus.respLayer1.occupancy         7843340500                       # Layer occupancy (ticks)
system.membus.respLayer1.utilization              4.5                       # Layer utilization (%)
system.membus.reqLayer0.occupancy          9441615500                       # Layer occupancy (ticks)
system.membus.reqLayer0.utilization               5.4                       # Layer utilization (%)
system.tol2bus.pwrStateResidencyTicks::UNDEFINED 175527338500                       # Cumulative time (in ticks) in various power states
system.tol2bus.trans_dist::ReadResp             12321                       # Transaction distribution
system.tol2bus.trans_dist::WritebackDirty      2972868                       # Transaction distribution
system.tol2bus.trans_dist::WritebackClean          210                       # Transaction distribution
system.tol2bus.trans_dist::CleanEvict            6507                       # Transaction distribution
system.tol2bus.trans_dist::ReadExReq          1496570                       # Transaction distribution
system.tol2bus.trans_dist::ReadExResp         1496569                       # Transaction distribution
system.tol2bus.trans_dist::ReadCleanReq           559                       # Transaction distribution
system.tol2bus.trans_dist::ReadSharedReq        11762                       # Transaction distribution
system.tol2bus.pkt_count_system.cpu.icache.mem_side::system.l2.cpu_side         1328                       # Packet count per connected master and slave (bytes)
system.tol2bus.pkt_count_system.cpu.dcache.mem_side::system.l2.cpu_side      4523970                       # Packet count per connected master and slave (bytes)
system.tol2bus.pkt_count::total               4525298                       # Packet count per connected master and slave (bytes)
system.tol2bus.pkt_size_system.cpu.icache.mem_side::system.l2.cpu_side        49216                       # Cumulative packet size per connected master and slave (bytes)
system.tol2bus.pkt_size_system.cpu.dcache.mem_side::system.l2.cpu_side    192621632                       # Cumulative packet size per connected master and slave (bytes)
system.tol2bus.pkt_size::total              192670848                       # Cumulative packet size per connected master and slave (bytes)
system.tol2bus.snoops                         1472068                       # Total snoops (count)
system.tol2bus.snoopTraffic                  94175104                       # Total snoop traffic (bytes)
system.tol2bus.snoop_fanout::samples          2980959                       # Request fanout histogram
system.tol2bus.snoop_fanout::mean            0.002078                       # Request fanout histogram
system.tol2bus.snoop_fanout::stdev           0.045532                       # Request fanout histogram
system.tol2bus.snoop_fanout::underflows             0      0.00%      0.00% # Request fanout histogram
system.tol2bus.snoop_fanout::0                2974766     99.79%     99.79% # Request fanout histogram
system.tol2bus.snoop_fanout::1                   6193      0.21%    100.00% # Request fanout histogram
system.tol2bus.snoop_fanout::2                      0      0.00%    100.00% # Request fanout histogram
system.tol2bus.snoop_fanout::overflows              0      0.00%    100.00% # Request fanout histogram
system.tol2bus.snoop_fanout::min_value              0                       # Request fanout histogram
system.tol2bus.snoop_fanout::max_value              1                       # Request fanout histogram
system.tol2bus.snoop_fanout::total            2980959                       # Request fanout histogram
system.tol2bus.reqLayer0.occupancy         3009796000                       # Layer occupancy (ticks)
system.tol2bus.reqLayer0.utilization              1.7                       # Layer utilization (%)
system.tol2bus.respLayer1.occupancy        2262497997                       # Layer occupancy (ticks)
system.tol2bus.respLayer1.utilization             1.3                       # Layer utilization (%)
system.tol2bus.respLayer0.occupancy            838500                       # Layer occupancy (ticks)
system.tol2bus.respLayer0.utilization             0.0                       # Layer utilization (%)
system.voltage_domain.voltage                       1                       # Voltage in Volts
system.clk_domain.clock                          1000                       # Clock period in ticks
system.l2.pwrStateResidencyTicks::UNDEFINED 175527338500                       # Cumulative time (in ticks) in various power states
system.l2.demand_hits::.cpu.inst                   68                       # number of demand (read+write) hits
system.l2.demand_hits::.cpu.data                20367                       # number of demand (read+write) hits
system.l2.demand_hits::total                    20435                       # number of demand (read+write) hits
system.l2.overall_hits::.cpu.inst                  68                       # number of overall hits
system.l2.overall_hits::.cpu.data               20367                       # number of overall hits
system.l2.overall_hits::total                   20435                       # number of overall hits
system.l2.demand_misses::.cpu.inst                491                       # number of demand (read+write) misses
system.l2.demand_misses::.cpu.data            1487965                       # number of demand (read+write) misses
system.l2.demand_misses::total                1488456                       # number of demand (read+write) misses
system.l2.overall_misses::.cpu.inst               491                       # number of overall misses
system.l2.overall_misses::.cpu.data           1487965                       # number of overall misses
system.l2.overall_misses::total               1488456                       # number of overall misses
system.l2.demand_miss_latency::.cpu.inst     37275000                       # number of demand (read+write) miss cycles
system.l2.demand_miss_latency::.cpu.data 119241253500                       # number of demand (read+write) miss cycles
system.l2.demand_miss_latency::total     119278528500                       # number of demand (read+write) miss cycles
system.l2.overall_miss_latency::.cpu.inst     37275000                       # number of overall miss cycles
system.l2.overall_miss_latency::.cpu.data 119241253500                       # number of overall miss cycles
system.l2.overall_miss_latency::total    119278528500                       # number of overall miss cycles
system.l2.demand_accesses::.cpu.inst              559                       # number of demand (read+write) accesses
system.l2.demand_accesses::.cpu.data          1508332                       # number of demand (read+write) accesses
system.l2.demand_accesses::total              1508891                       # number of demand (read+write) accesses
system.l2.overall_accesses::.cpu.inst             559                       # number of overall (read+write) accesses
system.l2.overall_accesses::.cpu.data         1508332                       # number of overall (read+write) accesses
system.l2.overall_accesses::total             1508891                       # number of overall (read+write) accesses
system.l2.demand_miss_rate::.cpu.inst        0.878354                       # miss rate for demand accesses
system.l2.demand_miss_rate::.cpu.data        0.986497                       # miss rate for demand accesses
system.l2.demand_miss_rate::total            0.986457                       # miss rate for demand accesses
system.l2.overall_miss_rate::.cpu.inst       0.878354                       # miss rate for overall accesses
system.l2.overall_miss_rate::.cpu.data       0.986497                       # miss rate for overall accesses
system.l2.overall_miss_rate::total           0.986457                       # miss rate for overall accesses
system.l2.demand_avg_miss_latency::.cpu.inst 75916.496945                       # average overall miss latency
system.l2.demand_avg_miss_latency::.cpu.data 80137.135954                       # average overall miss latency
system.l2.demand_avg_miss_latency::total 80135.743683                       # average overall miss latency
system.l2.overall_avg_miss_latency::.cpu.inst 75916.496945                       # average overall miss latency
system.l2.overall_avg_miss_latency::.cpu.data 80137.135954                       # average overall miss latency
system.l2.overall_avg_miss_latency::total 80135.743683                       # average overall miss latency
system.l2.blocked_cycles::no_mshrs                  0                       # number of cycles access was blocked
system.l2.blocked_cycles::no_targets                0                       # number of cycles access was blocked
system.l2.blocked::no_mshrs                         0                       # number of cycles access was blocked
system.l2.blocked::no_targets                       0                       # number of cycles access was blocked
system.l2.avg_blocked_cycles::no_mshrs            nan                       # average number of cycles each access was blocked
system.l2.avg_blocked_cycles::no_targets          nan                       # average number of cycles each access was blocked
system.l2.writebacks::.writebacks             1471486                       # number of writebacks
system.l2.writebacks::total                   1471486                       # number of writebacks
system.l2.demand_mshr_hits::.cpu.data               3                       # number of demand (read+write) MSHR hits
system.l2.demand_mshr_hits::total                   3                       # number of demand (read+write) MSHR hits
system.l2.overall_mshr_hits::.cpu.data              3                       # number of overall MSHR hits
system.l2.overall_mshr_hits::total                  3                       # number of overall MSHR hits
system.l2.demand_mshr_misses::.cpu.inst           491                       # number of demand (read+write) MSHR misses
system.l2.demand_mshr_misses::.cpu.data       1487962                       # number of demand (read+write) MSHR misses
system.l2.demand_mshr_misses::total           1488453                       # number of demand (read+write) MSHR misses
system.l2.overall_mshr_misses::.cpu.inst          491                       # number of overall MSHR misses
system.l2.overall_mshr_misses::.cpu.data      1487962                       # number of overall MSHR misses
system.l2.overall_mshr_misses::total          1488453                       # number of overall MSHR misses
system.l2.demand_mshr_miss_latency::.cpu.inst     32365000                       # number of demand (read+write) MSHR miss cycles
system.l2.demand_mshr_miss_latency::.cpu.data 104361442000                       # number of demand (read+write) MSHR miss cycles
system.l2.demand_mshr_miss_latency::total 104393807000                       # number of demand (read+write) MSHR miss cycles
system.l2.overall_mshr_miss_latency::.cpu.inst     32365000                       # number of overall MSHR miss cycles
system.l2.overall_mshr_miss_latency::.cpu.data 104361442000                       # number of overall MSHR miss cycles
system.l2.overall_mshr_miss_latency::total 104393807000                       # number of overall MSHR miss cycles
system.l2.demand_mshr_miss_rate::.cpu.inst     0.878354                       # mshr miss rate for demand accesses
system.l2.demand_mshr_miss_rate::.cpu.data     0.986495                       # mshr miss rate for demand accesses
system.l2.demand_mshr_miss_rate::total       0.986455                       # mshr miss rate for demand accesses
system.l2.overall_mshr_miss_rate::.cpu.inst     0.878354                       # mshr miss rate for overall accesses
system.l2.overall_mshr_miss_rate::.cpu.data     0.986495                       # mshr miss rate for overall accesses
system.l2.overall_mshr_miss_rate::total      0.986455                       # mshr miss rate for overall accesses
system.l2.demand_avg_mshr_miss_latency::.cpu.inst 65916.496945                       # average overall mshr miss latency
system.l2.demand_avg_mshr_miss_latency::.cpu.data 70137.168826                       # average overall mshr miss latency
system.l2.demand_avg_mshr_miss_latency::total 70135.776541                       # average overall mshr miss latency
system.l2.overall_avg_mshr_miss_latency::.cpu.inst 65916.496945                       # average overall mshr miss latency
system.l2.overall_avg_mshr_miss_latency::.cpu.data 70137.168826                       # average overall mshr miss latency
system.l2.overall_avg_mshr_miss_latency::total 70135.776541                       # average overall mshr miss latency
system.l2.replacements                        1472068                       # number of replacements
system.l2.WritebackDirty_hits::.writebacks      1501382                       # number of WritebackDirty hits
system.l2.WritebackDirty_hits::total          1501382                       # number of WritebackDirty hits
system.l2.WritebackDirty_accesses::.writebacks      1501382                       # number of WritebackDirty accesses(hits+misses)
system.l2.WritebackDirty_accesses::total      1501382                       # number of WritebackDirty accesses(hits+misses)
system.l2.WritebackClean_hits::.writebacks          197                       # number of WritebackClean hits
system.l2.WritebackClean_hits::total              197                       # number of WritebackClean hits
system.l2.WritebackClean_accesses::.writebacks          197                       # number of WritebackClean accesses(hits+misses)
system.l2.WritebackClean_accesses::total          197                       # number of WritebackClean accesses(hits+misses)
system.l2.ReadExReq_hits::.cpu.data              8718                       # number of ReadExReq hits
system.l2.ReadExReq_hits::total                  8718                       # number of ReadExReq hits
system.l2.ReadExReq_misses::.cpu.data         1487852                       # number of ReadExReq misses
system.l2.ReadExReq_misses::total             1487852                       # number of ReadExReq misses
system.l2.ReadExReq_miss_latency::.cpu.data 119232008500                       # number of ReadExReq miss cycles
system.l2.ReadExReq_miss_latency::total  119232008500                       # number of ReadExReq miss cycles
system.l2.ReadExReq_accesses::.cpu.data       1496570                       # number of ReadExReq accesses(hits+misses)
system.l2.ReadExReq_accesses::total           1496570                       # number of ReadExReq accesses(hits+misses)
system.l2.ReadExReq_miss_rate::.cpu.data     0.994175                       # miss rate for ReadExReq accesses
system.l2.ReadExReq_miss_rate::total         0.994175                       # miss rate for ReadExReq accesses
system.l2.ReadExReq_avg_miss_latency::.cpu.data 80137.008587                       # average ReadExReq miss latency
system.l2.ReadExReq_avg_miss_latency::total 80137.008587                       # average ReadExReq miss latency
system.l2.ReadExReq_mshr_misses::.cpu.data      1487852                       # number of ReadExReq MSHR misses
system.l2.ReadExReq_mshr_misses::total        1487852                       # number of ReadExReq MSHR misses
system.l2.ReadExReq_mshr_miss_latency::.cpu.data 104353498500                       # number of ReadExReq MSHR miss cycles
system.l2.ReadExReq_mshr_miss_latency::total 104353498500                       # number of ReadExReq MSHR miss cycles
system.l2.ReadExReq_mshr_miss_rate::.cpu.data     0.994175                       # mshr miss rate for ReadExReq accesses
system.l2.ReadExReq_mshr_miss_rate::total     0.994175                       # mshr miss rate for ReadExReq accesses
system.l2.ReadExReq_avg_mshr_miss_latency::.cpu.data 70137.015308                       # average ReadExReq mshr miss latency
system.l2.ReadExReq_avg_mshr_miss_latency::total 70137.015308                       # average ReadExReq mshr miss latency
system.l2.ReadCleanReq_hits::.cpu.inst             68                       # number of ReadCleanReq hits
system.l2.ReadCleanReq_hits::total                 68                       # number of ReadCleanReq hits
system.l2.ReadCleanReq_misses::.cpu.inst          491                       # number of ReadCleanReq misses
system.l2.ReadCleanReq_misses::total              491                       # number of ReadCleanReq misses
system.l2.ReadCleanReq_miss_latency::.cpu.inst     37275000                       # number of ReadCleanReq miss cycles
system.l2.ReadCleanReq_miss_latency::total     37275000                       # number of ReadCleanReq miss cycles
system.l2.ReadCleanReq_accesses::.cpu.inst          559                       # number of ReadCleanReq accesses(hits+misses)
system.l2.ReadCleanReq_accesses::total            559                       # number of ReadCleanReq accesses(hits+misses)
system.l2.ReadCleanReq_miss_rate::.cpu.inst     0.878354                       # miss rate for ReadCleanReq accesses
system.l2.ReadCleanReq_miss_rate::total      0.878354                       # miss rate for ReadCleanReq accesses
system.l2.ReadCleanReq_avg_miss_latency::.cpu.inst 75916.496945                       # average ReadCleanReq miss latency
system.l2.ReadCleanReq_avg_miss_latency::total 75916.496945                       # average ReadCleanReq miss latency
system.l2.ReadCleanReq_mshr_misses::.cpu.inst          491                       # number of ReadCleanReq MSHR misses
system.l2.ReadCleanReq_mshr_misses::total          491                       # number of ReadCleanReq MSHR misses
system.l2.ReadCleanReq_mshr_miss_latency::.cpu.inst     32365000                       # number of ReadCleanReq MSHR miss cycles
system.l2.ReadCleanReq_mshr_miss_latency::total     32365000                       # number of ReadCleanReq MSHR miss cycles
system.l2.ReadCleanReq_mshr_miss_rate::.cpu.inst     0.878354                       # mshr miss rate for ReadCleanReq accesses
system.l2.ReadCleanReq_mshr_miss_rate::total     0.878354                       # mshr miss rate for ReadCleanReq accesses
system.l2.ReadCleanReq_avg_mshr_miss_latency::.cpu.inst 65916.496945                       # average ReadCleanReq mshr miss latency
system.l2.ReadCleanReq_avg_mshr_miss_latency::total 65916.496945                       # average ReadCleanReq mshr miss latency
system.l2.ReadSharedReq_hits::.cpu.data         11649                       # number of ReadSharedReq hits
system.l2.ReadSharedReq_hits::total             11649                       # number of ReadSharedReq hits
system.l2.ReadSharedReq_misses::.cpu.data          113                       # number of ReadSharedReq misses
system.l2.ReadSharedReq_misses::total             113                       # number of ReadSharedReq misses
system.l2.ReadSharedReq_miss_latency::.cpu.data      9245000                       # number of ReadSharedReq miss cycles
system.l2.ReadSharedReq_miss_latency::total      9245000                       # number of ReadSharedReq miss cycles
system.l2.ReadSharedReq_accesses::.cpu.data        11762                       # number of ReadSharedReq accesses(hits+misses)
system.l2.ReadSharedReq_accesses::total         11762                       # number of ReadSharedReq accesses(hits+misses)
system.l2.ReadSharedReq_miss_rate::.cpu.data     0.009607                       # miss rate for ReadSharedReq accesses
system.l2.ReadSharedReq_miss_rate::total     0.009607                       # miss rate for ReadSharedReq accesses
system.l2.ReadSharedReq_avg_miss_latency::.cpu.data 81814.159292                       # average ReadSharedReq miss latency
system.l2.ReadSharedReq_avg_miss_latency::total 81814.159292                       # average ReadSharedReq miss latency
system.l2.ReadSharedReq_mshr_hits::.cpu.data            3                       # number of ReadSharedReq MSHR hits
system.l2.ReadSharedReq_mshr_hits::total            3                       # number of ReadSharedReq MSHR hits
system.l2.ReadSharedReq_mshr_misses::.cpu.data          110                       # number of ReadSharedReq MSHR misses
system.l2.ReadSharedReq_mshr_misses::total          110                       # number of ReadSharedReq MSHR misses
system.l2.ReadSharedReq_mshr_miss_latency::.cpu.data      7943500                       # number of ReadSharedReq MSHR miss cycles
system.l2.ReadSharedReq_mshr_miss_latency::total      7943500                       # number of ReadSharedReq MSHR miss cycles
system.l2.ReadSharedReq_mshr_miss_rate::.cpu.data     0.009352                       # mshr miss rate for ReadSharedReq accesses
system.l2.ReadSharedReq_mshr_miss_rate::total     0.009352                       # mshr miss rate for ReadSharedReq accesses
system.l2.ReadSharedReq_avg_mshr_miss_latency::.cpu.data 72213.636364                       # average ReadSharedReq mshr miss latency
system.l2.ReadSharedReq_avg_mshr_miss_latency::total 72213.636364                       # average ReadSharedReq mshr miss latency
system.l2.tags.pwrStateResidencyTicks::UNDEFINED 175527338500                       # Cumulative time (in ticks) in various power states
system.l2.tags.tagsinuse                 16299.838750                       # Cycle average of tags in use
system.l2.tags.total_refs                     3010560                       # Total number of references to valid blocks.
system.l2.tags.sampled_refs                   1488452                       # Sample count of references to valid blocks.
system.l2.tags.avg_refs                      2.022611                       # Average number of references to valid blocks.
system.l2.tags.warmup_cycle                     77000                       # Cycle when the warmup percentage was hit.
system.l2.tags.occ_blocks::.cpu.inst         5.824270                       # Average occupied blocks per requestor
system.l2.tags.occ_blocks::.cpu.data     16294.014481                       # Average occupied blocks per requestor
system.l2.tags.occ_percent::.cpu.inst        0.000355                       # Average percentage of cache occupancy
system.l2.tags.occ_percent::.cpu.data        0.994508                       # Average percentage of cache occupancy
system.l2.tags.occ_percent::total            0.994863                       # Average percentage of cache occupancy
system.l2.tags.occ_task_id_blocks::1024         16384                       # Occupied blocks per task id
system.l2.tags.age_task_id_blocks_1024::0           83                       # Occupied blocks per task id
system.l2.tags.age_task_id_blocks_1024::1          766                       # Occupied blocks per task id
system.l2.tags.age_task_id_blocks_1024::2         7634                       # Occupied blocks per task id
system.l2.tags.age_task_id_blocks_1024::3         7899                       # Occupied blocks per task id
system.l2.tags.age_task_id_blocks_1024::4            2                       # Occupied blocks per task id
system.l2.tags.occ_task_id_percent::1024            1                       # Percentage of cache occupancy per task id
system.l2.tags.tag_accesses                  25572964                       # Number of tag accesses
system.l2.tags.data_accesses                 25572964                       # Number of data accesses
system.cpu_voltage_domain.voltage                   1                       # Voltage in Volts
system.mem_ctrls.pwrStateResidencyTicks::UNDEFINED 175527338500                       # Cumulative time (in ticks) in various power states
system.mem_ctrls.bytes_read::.cpu.inst          31424                       # Number of bytes read from this memory
system.mem_ctrls.bytes_read::.cpu.data       95229504                       # Number of bytes read from this memory
system.mem_ctrls.bytes_read::total           95260928                       # Number of bytes read from this memory
system.mem_ctrls.bytes_inst_read::.cpu.inst        31424                       # Number of instructions bytes read from this memory
system.mem_ctrls.bytes_inst_read::total         31424                       # Number of instructions bytes read from this memory
system.mem_ctrls.bytes_written::.writebacks     94175104                       # Number of bytes written to this memory
system.mem_ctrls.bytes_written::total        94175104                       # Number of bytes written to this memory
system.mem_ctrls.num_reads::.cpu.inst             491                       # Number of read requests responded to by this memory
system.mem_ctrls.num_reads::.cpu.data         1487961                       # Number of read requests responded to by this memory
system.mem_ctrls.num_reads::total             1488452                       # Number of read requests responded to by this memory
system.mem_ctrls.num_writes::.writebacks      1471486                       # Number of write requests responded to by this memory
system.mem_ctrls.num_writes::total            1471486                       # Number of write requests responded to by this memory
system.mem_ctrls.bw_read::.cpu.inst            179026                       # Total read bandwidth from this memory (bytes/s)
system.mem_ctrls.bw_read::.cpu.data         542533743                       # Total read bandwidth from this memory (bytes/s)
system.mem_ctrls.bw_read::total             542712769                       # Total read bandwidth from this memory (bytes/s)
system.mem_ctrls.bw_inst_read::.cpu.inst       179026                       # Instruction read bandwidth from this memory (bytes/s)
system.mem_ctrls.bw_inst_read::total           179026                       # Instruction read bandwidth from this memory (bytes/s)
system.mem_ctrls.bw_write::.writebacks      536526702                       # Write bandwidth from this memory (bytes/s)
system.mem_ctrls.bw_write::total            536526702                       # Write bandwidth from this memory (bytes/s)
system.mem_ctrls.bw_total::.writebacks      536526702                       # Total bandwidth to/from this memory (bytes/s)
system.mem_ctrls.bw_total::.cpu.inst           179026                       # Total bandwidth to/from this memory (bytes/s)
system.mem_ctrls.bw_total::.cpu.data        542533743                       # Total bandwidth to/from this memory (bytes/s)
system.mem_ctrls.bw_total::total           1079239471                       # Total bandwidth to/from this memory (bytes/s)
system.mem_ctrls.avgPriority_.writebacks::samples   1471486.00                       # Average QoS priority value for accepted requests
system.mem_ctrls.avgPriority_.cpu.inst::samples       491.00                       # Average QoS priority value for accepted requests
system.mem_ctrls.avgPriority_.cpu.data::samples   1487961.00                       # Average QoS priority value for accepted requests
system.mem_ctrls.priorityMinLatency      0.000000018750                       # per QoS priority minimum request to response latency (s)
system.mem_ctrls.priorityMaxLatency      0.000460259500                       # per QoS priority maximum request to response latency (s)
system.mem_ctrls.numReadWriteTurnArounds        91758                       # Number of turnarounds from READ to WRITE
system.mem_ctrls.numWriteReadTurnArounds        91758                       # Number of turnarounds from WRITE to READ
system.mem_ctrls.numStayReadState             4399052                       # Number of times bus staying in READ state
system.mem_ctrls.numStayWriteState            1382302                       # Number of times bus staying in WRITE state
system.mem_ctrls.readReqs                     1488452                       # Number of read requests accepted
system.mem_ctrls.writeReqs                    1471486                       # Number of write requests accepted
system.mem_ctrls.readBursts                   1488452                       # Number of DRAM read bursts, including those serviced by the write queue
system.mem_ctrls.writeBursts                  1471486                       # Number of DRAM write bursts, including those merged in the write queue
system.mem_ctrls.servicedByWrQ                      0                       # Number of DRAM read bursts serviced by the write queue
system.mem_ctrls.mergedWrBursts                     0                       # Number of DRAM write bursts merged with an existing one
system.mem_ctrls.neitherReadNorWriteReqs            0                       # Number of requests that are neither read nor write
system.mem_ctrls.perBankRdBursts::0             93065                       # Per bank write bursts
system.mem_ctrls.perBankRdBursts::1             92958                       # Per bank write bursts
system.mem_ctrls.perBankRdBursts::2             92992                       # Per bank write bursts
system.mem_ctrls.perBankRdBursts::3             93001                       # Per bank write bursts
system.mem_ctrls.perBankRdBursts::4             93101                       # Per bank write bursts
system.mem_ctrls.perBankRdBursts::5             93074                       # Per bank write bursts
system.mem_ctrls.perBankRdBursts::6             93061                       # Per bank write bursts
system.mem_ctrls.perBankRdBursts::7             93078                       # Per bank write bursts
system.mem_ctrls.perBankRdBursts::8             93156                       # Per bank write bursts
system.mem_ctrls.perBankRdBursts::9             93072                       # Per bank write bursts
system.mem_ctrls.perBankRdBursts::10            93050                       # Per bank write bursts
system.mem_ctrls.perBankRdBursts::11            92953                       # Per bank write bursts
system.mem_ctrls.perBankRdBursts::12            92999                       # Per bank write bursts
system.mem_ctrls.perBankRdBursts::13            92951                       # Per bank write bursts
system.mem_ctrls.perBankRdBursts::14            92954                       # Per bank write bursts
system.mem_ctrls.perBankRdBursts::15            92987                       # Per bank write bursts
system.mem_ctrls.perBankWrBursts::0             91949                       # Per bank write bursts
system.mem_ctrls.perBankWrBursts::1             91929                       # Per bank write bursts
system.mem_ctrls.perBankWrBursts::2             91919                       # Per bank write bursts
system.mem_ctrls.perBankWrBursts::3             91973                       # Per bank write bursts
system.mem_ctrls.perBankWrBursts::4             92033                       # Per bank write bursts
system.mem_ctrls.perBankWrBursts::5             92032                       # Per bank write bursts
system.mem_ctrls.perBankWrBursts::6             92032                       # Per bank write bursts
system.mem_ctrls.perBankWrBursts::7             92032                       # Per bank write bursts
system.mem_ctrls.perBankWrBursts::8             92032                       # Per bank write bursts
system.mem_ctrls.perBankWrBursts::9             92032                       # Per bank write bursts
system.mem_ctrls.perBankWrBursts::10            91968                       # Per bank write bursts
system.mem_ctrls.perBankWrBursts::11            91904                       # Per bank write bursts
system.mem_ctrls.perBankWrBursts::12            91904                       # Per bank write bursts
system.mem_ctrls.perBankWrBursts::13            91904                       # Per bank write bursts
system.mem_ctrls.perBankWrBursts::14            91904                       # Per bank write bursts
system.mem_ctrls.perBankWrBursts::15            91908                       # Per bank write bursts
system.mem_ctrls.avgRdQLen                       1.00                       # Average read queue length when enqueuing
system.mem_ctrls.avgWrQLen                      25.63                       # Average write queue length when enqueuing
system.mem_ctrls.totQLat                  15206422000                       # Total ticks spent queuing
system.mem_ctrls.totBusLat                 7442260000                       # Total ticks spent in databus transfers
system.mem_ctrls.totMemAccLat             43114897000                       # Total ticks spent from burst creation until serviced by the DRAM
system.mem_ctrls.avgQLat                     10216.27                       # Average queueing delay per DRAM burst
system.mem_ctrls.avgBusLat                    5000.00                       # Average bus latency per DRAM burst
system.mem_ctrls.avgMemAccLat                28966.27                       # Average memory access latency per DRAM burst
system.mem_ctrls.numRdRetry                         0                       # Number of times read queue was full causing retry
system.mem_ctrls.numWrRetry                         0                       # Number of times write queue was full causing retry
system.mem_ctrls.readRowHits                  1363323                       # Number of row buffer hits during reads
system.mem_ctrls.writeRowHits                 1367969                       # Number of row buffer hits during writes
system.mem_ctrls.readRowHitRate                 91.59                       # Row buffer hit rate for reads
system.mem_ctrls.writeRowHitRate                92.97                       # Row buffer hit rate for writes
system.mem_ctrls.readPktSize::0                     0                       # Read request sizes (log2)
system.mem_ctrls.readPktSize::1                     0                       # Read request sizes (log2)
system.mem_ctrls.readPktSize::2                     0                       # Read request sizes (log2)
system.mem_ctrls.readPktSize::3                     0                       # Read request sizes (log2)
system.mem_ctrls.readPktSize::4                     0                       # Read request sizes (log2)
system.mem_ctrls.readPktSize::5                     0                       # Read request sizes (log2)
system.mem_ctrls.readPktSize::6               1488452                       # Read request sizes (log2)
system.mem_ctrls.writePktSize::0                    0                       # Write request sizes (log2)
system.mem_ctrls.writePktSize::1                    0                       # Write request sizes (log2)
system.mem_ctrls.writePktSize::2                    0                       # Write request sizes (log2)
system.mem_ctrls.writePktSize::3                    0                       # Write request sizes (log2)
system.mem_ctrls.writePktSize::4                    0                       # Write request sizes (log2)
system.mem_ctrls.writePktSize::5                    0                       # Write request sizes (log2)
system.mem_ctrls.writePktSize::6              1471486                       # Write request sizes (log2)
system.mem_ctrls.rdQLenPdf::0                 1488355                       # What read queue length does an incoming req see
system.mem_ctrls.rdQLenPdf::1                      87                       # What read queue length does an incoming req see
system.mem_ctrls.rdQLenPdf::2                       9                       # What read queue length does an incoming req see
system.mem_ctrls.rdQLenPdf::3                       1                       # What read queue length does an incoming req see
system.mem_ctrls.rdQLenPdf::4                       0                       # What read queue length does an incoming req see
system.mem_ctrls.rdQLenPdf::5                       0                       # What read queue length does an incoming req see
system.mem_ctrls.rdQLenPdf::6                       0                       # What read queue length does an incoming req see
system.mem_ctrls.rdQLenPdf::7                       0                       # What read queue length does an incoming req see
system.mem_ctrls.rdQLenPdf::8                       0                       # What read queue length does an incoming req see
system.mem_ctrls.rdQLenPdf::9                       0                       # What read queue length does an incoming req see
system.mem_ctrls.rdQLenPdf::10                      0                       # What read queue length does an incoming req see
system.mem_ctrls.rdQLenPdf::11                      0                       # What read queue length does an incoming req see
system.mem_ctrls.rdQLenPdf::12                      0                       # What read queue length does an incoming req see
system.mem_ctrls.rdQLenPdf::13                      0                       # What read queue length does an incoming req see
system.mem_ctrls.rdQLenPdf::14                      0                       # What read queue length does an incoming req see
system.mem_ctrls.rdQLenPdf::15                      0                       # What read queue length does an incoming req see
system.mem_ctrls.rdQLenPdf::16                      0                       # What read queue length does an incoming req see
system.mem_ctrls.rdQLenPdf::17                      0                       # What read queue length does an incoming req see
system.mem_ctrls.rdQLenPdf::18                      0                       # What read queue length does an incoming req see
system.mem_ctrls.rdQLenPdf::19                      0                       # What read queue length does an incoming req see
system.mem_ctrls.rdQLenPdf::20                      0                       # What read queue length does an incoming req see
system.mem_ctrls.rdQLenPdf::21                      0                       # What read queue length does an incoming req see
system.mem_ctrls.rdQLenPdf::22                      0                       # What read queue length does an incoming req see
system.mem_ctrls.rdQLenPdf::23                      0                       # What read queue length does an incoming req see
system.mem_ctrls.rdQLenPdf::24                      0                       # What read queue length does an incoming req see
system.mem_ctrls.rdQLenPdf::25                      0                       # What read queue length does an incoming req see
system.mem_ctrls.rdQLenPdf::26                      0                       # What read queue length does an incoming req see
system.mem_ctrls.rdQLenPdf::27                      0                       # What read queue length does an incoming req see
system.mem_ctrls.rdQLenPdf::28                      0                       # What read queue length does an incoming req see
system.mem_ctrls.rdQLenPdf::29                      0                       # What read queue length does an incoming req see
system.mem_ctrls.rdQLenPdf::30                      0                       # What read queue length does an incoming req see
system.mem_ctrls.rdQLenPdf::31                      0                       # What read queue length does an incoming req see
system.mem_ctrls.wrQLenPdf::0                       1                       # What write queue length does an incoming req see
system.mem_ctrls.wrQLenPdf::1                       1                       # What write queue length does an incoming req see
system.mem_ctrls.wrQLenPdf::2                       1                       # What write queue length does an incoming req see
system.mem_ctrls.wrQLenPdf::3                       1                       # What write queue length does an incoming req see
system.mem_ctrls.wrQLenPdf::4                       1                       # What write queue length does an incoming req see
system.mem_ctrls.wrQLenPdf::5                       1                       # What write queue length does an incoming req see
system.mem_ctrls.wrQLenPdf::6                       1                       # What write queue length does an incoming req see
system.mem_ctrls.wrQLenPdf::7                       1                       # What write queue length does an incoming req see
system.mem_ctrls.wrQLenPdf::8                       1                       # What write queue length does an incoming req see
system.mem_ctrls.wrQLenPdf::9                       1                       # What write queue length does an incoming req see
system.mem_ctrls.wrQLenPdf::10                      1                       # What write queue length does an incoming req see
system.mem_ctrls.wrQLenPdf::11                      1                       # What write queue length does an incoming req see
system.mem_ctrls.wrQLenPdf::12                      1                       # What write queue length does an incoming req see
system.mem_ctrls.wrQLenPdf::13                      1                       # What write queue length does an incoming req see
system.mem_ctrls.wrQLenPdf::14                      1                       # What write queue length does an incoming req see
system.mem_ctrls.wrQLenPdf::15                    592                       # What write queue length does an incoming req see
system.mem_ctrls.wrQLenPdf::16                   1487                       # What write queue length does an incoming req see
system.mem_ctrls.wrQLenPdf::17                  92142                       # What write queue length does an incoming req see
system.mem_ctrls.wrQLenPdf::18                  91788                       # What write queue length does an incoming req see
system.mem_ctrls.wrQLenPdf::19                  91762                       # What write queue length does an incoming req see
system.mem_ctrls.wrQLenPdf::20                  91760                       # What write queue length does an incoming req see
system.mem_ctrls.wrQLenPdf::21                  91785                       # What write queue length does an incoming req see
system.mem_ctrls.wrQLenPdf::22                  91787                       # What write queue length does an incoming req see
system.mem_ctrls.wrQLenPdf::23                  91761                       # What write queue length does an incoming req see
system.mem_ctrls.wrQLenPdf::24                  91759                       # What write queue length does an incoming req see
system.mem_ctrls.wrQLenPdf::25                  92534                       # What write queue length does an incoming req see
system.mem_ctrls.wrQLenPdf::26                  91759                       # What write queue length does an incoming req see
system.mem_ctrls.wrQLenPdf::27                  91759                       # What write queue length does an incoming req see
system.mem_ctrls.wrQLenPdf::28                  91759                       # What write queue length does an incoming req see
system.mem_ctrls.wrQLenPdf::29                  91759                       # What write queue length does an incoming req see
system.mem_ctrls.wrQLenPdf::30                  91759                       # What write queue length does an incoming req see
system.mem_ctrls.wrQLenPdf::31                  91761                       # What write queue length does an incoming req see
system.mem_ctrls.wrQLenPdf::32                  91758                       # What write queue length does an incoming req see
system.mem_ctrls.wrQLenPdf::33                      0                       # What write queue length does an incoming req see
system.mem_ctrls.wrQLenPdf::34                      0                       # What write queue length does an incoming req see
system.mem_ctrls.wrQLenPdf::35                      0                       # What write queue length does an incoming req see
system.mem_ctrls.wrQLenPdf::36                      0                       # What write queue length does an incoming req see
system.mem_ctrls.wrQLenPdf::37                      0                       # What write queue length does an incoming req see
system.mem_ctrls.wrQLenPdf::38                      0                       # What write queue length does an incoming req see
system.mem_ctrls.wrQLenPdf::39                      0                       # What write queue length does an incoming req see
system.mem_ctrls.wrQLenPdf::40                      0                       # What write queue length does an incoming req see
system.mem_ctrls.wrQLenPdf::41                      0                       # What write queue length does an incoming req see
system.mem_ctrls.wrQLenPdf::42                      0                       # What write queue length does an incoming req see
system.mem_ctrls.wrQLenPdf::43                      0                       # What write queue length does an incoming req see
system.mem_ctrls.wrQLenPdf::44                      0                       # What write queue length does an incoming req see
system.mem_ctrls.wrQLenPdf::45                      0                       # What write queue length does an incoming req see
system.mem_ctrls.wrQLenPdf::46                      0                       # What write queue length does an incoming req see
system.mem_ctrls.wrQLenPdf::47                      0                       # What write queue length does an incoming req see
system.mem_ctrls.wrQLenPdf::48                      0                       # What write queue length does an incoming req see
system.mem_ctrls.wrQLenPdf::49                      0                       # What write queue length does an incoming req see
system.mem_ctrls.wrQLenPdf::50                      0                       # What write queue length does an incoming req see
system.mem_ctrls.wrQLenPdf::51                      0                       # What write queue length does an incoming req see
system.mem_ctrls.wrQLenPdf::52                      0                       # What write queue length does an incoming req see
system.mem_ctrls.wrQLenPdf::53                      0                       # What write queue length does an incoming req see
system.mem_ctrls.wrQLenPdf::54                      0                       # What write queue length does an incoming req see
system.mem_ctrls.wrQLenPdf::55                      0                       # What write queue length does an incoming req see
system.mem_ctrls.wrQLenPdf::56                      0                       # What write queue length does an incoming req see
system.mem_ctrls.wrQLenPdf::57                      0                       # What write queue length does an incoming req see
system.mem_ctrls.wrQLenPdf::58                      0                       # What write queue length does an incoming req see
system.mem_ctrls.wrQLenPdf::59                      0                       # What write queue length does an incoming req see
system.mem_ctrls.wrQLenPdf::60                      0                       # What write queue length does an incoming req see
system.mem_ctrls.wrQLenPdf::61                      0                       # What write queue length does an incoming req see
system.mem_ctrls.wrQLenPdf::62                      0                       # What write queue length does an incoming req see
system.mem_ctrls.wrQLenPdf::63                      0                       # What write queue length does an incoming req see
system.mem_ctrls.bytesPerActivate::samples       228614                       # Bytes accessed per row activation
system.mem_ctrls.bytesPerActivate::mean    828.615710                       # Bytes accessed per row activation
system.mem_ctrls.bytesPerActivate::gmean   693.796919                       # Bytes accessed per row activation
system.mem_ctrls.bytesPerActivate::stdev   321.865316                       # Bytes accessed per row activation
system.mem_ctrls.bytesPerActivate::0-127        11841      5.18%      5.18% # Bytes accessed per row activation
system.mem_ctrls.bytesPerActivate::128-255        12917      5.65%     10.83% # Bytes accessed per row activation
system.mem_ctrls.bytesPerActivate::256-383        11803      5.16%     15.99% # Bytes accessed per row activation
system.mem_ctrls.bytesPerActivate::384-511         6715      2.94%     18.93% # Bytes accessed per row activation
system.mem_ctrls.bytesPerActivate::512-639         6261      2.74%     21.67% # Bytes accessed per row activation
system.mem_ctrls.bytesPerActivate::640-767         7842      3.43%     25.10% # Bytes accessed per row activation
system.mem_ctrls.bytesPerActivate::768-895        12135      5.31%     30.41% # Bytes accessed per row activation
system.mem_ctrls.bytesPerActivate::896-1023        13142      5.75%     36.16% # Bytes accessed per row activation
system.mem_ctrls.bytesPerActivate::1024-1151       145958     63.84%    100.00% # Bytes accessed per row activation
system.mem_ctrls.bytesPerActivate::total       228614                       # Bytes accessed per row activation
system.mem_ctrls.rdPerTurnAround::samples        91758                       # Reads before turning the bus around for writes
system.mem_ctrls.rdPerTurnAround::mean      16.221343                       # Reads before turning the bus around for writes
system.mem_ctrls.rdPerTurnAround::gmean     16.037310                       # Reads before turning the bus around for writes
system.mem_ctrls.rdPerTurnAround::stdev     54.933193                       # Reads before turning the bus around for writes
system.mem_ctrls.rdPerTurnAround::0-1023        91757    100.00%    100.00% # Reads before turning the bus around for writes
system.mem_ctrls.rdPerTurnAround::16384-17407            1      0.00%    100.00% # Reads before turning the bus around for writes
system.mem_ctrls.rdPerTurnAround::total         91758                       # Reads before turning the bus around for writes
system.mem_ctrls.wrPerTurnAround::samples        91758                       # Writes before turning the bus around for reads
system.mem_ctrls.wrPerTurnAround::mean      16.036258                       # Writes before turning the bus around for reads
system.mem_ctrls.wrPerTurnAround::gmean     16.033769                       # Writes before turning the bus around for reads
system.mem_ctrls.wrPerTurnAround::stdev      0.296717                       # Writes before turning the bus around for reads
system.mem_ctrls.wrPerTurnAround::16            90332     98.45%     98.45% # Writes before turning the bus around for reads
system.mem_ctrls.wrPerTurnAround::17               60      0.07%     98.51% # Writes before turning the bus around for reads
system.mem_ctrls.wrPerTurnAround::18              831      0.91%     99.42% # Writes before turning the bus around for reads
system.mem_ctrls.wrPerTurnAround::19              535      0.58%    100.00% # Writes before turning the bus around for reads
[...]
system.cpu.icache.tags.occ_blocks::.cpu.inst   348.952229                       # Average occupied blocks per requestor
system.cpu.icache.tags.occ_percent::.cpu.inst     0.681547                       # Average percentage of cache occupancy
system.cpu.icache.tags.occ_percent::total     0.681547                       # Average percentage of cache occupancy
system.cpu.icache.tags.occ_task_id_blocks::1024          349                       # Occupied blocks per task id
system.cpu.icache.tags.age_task_id_blocks_1024::4          349                       # Occupied blocks per task id
system.cpu.icache.tags.occ_task_id_percent::1024     0.681641                       # Percentage of cache occupancy per task id
system.cpu.icache.tags.tag_accesses          11919519                       # Number of tag accesses
system.cpu.icache.tags.data_accesses         11919519                       # Number of data accesses
system.cpu.dtb.walker.pwrStateResidencyTicks::UNDEFINED 175527338500                       # Cumulative time (in ticks) in various power states
system.cpu.dtb.stage2_mmu.stage2_tlb.walker.pwrStateResidencyTicks::UNDEFINED 175527338500                       # Cumulative time (in ticks) in various power states
system.cpu.dcache.pwrStateResidencyTicks::UNDEFINED 175527338500                       # Cumulative time (in ticks) in various power states
system.cpu.dcache.demand_hits::.cpu.data     45802029                       # number of demand (read+write) hits
system.cpu.dcache.demand_hits::total         45802029                       # number of demand (read+write) hits
system.cpu.dcache.overall_hits::.cpu.data     45802060                       # number of overall hits
system.cpu.dcache.overall_hits::total        45802060                       # number of overall hits
system.cpu.dcache.demand_misses::.cpu.data      3004575                       # number of demand (read+write) misses
system.cpu.dcache.demand_misses::total        3004575                       # number of demand (read+write) misses
system.cpu.dcache.overall_misses::.cpu.data      3004596                       # number of overall misses
system.cpu.dcache.overall_misses::total       3004596                       # number of overall misses
system.cpu.dcache.demand_miss_latency::.cpu.data 238741537500                       # number of demand (read+write) miss cycles
system.cpu.dcache.demand_miss_latency::total 238741537500                       # number of demand (read+write) miss cycles
system.cpu.dcache.overall_miss_latency::.cpu.data 238741537500                       # number of overall miss cycles
system.cpu.dcache.overall_miss_latency::total 238741537500                       # number of overall miss cycles
system.cpu.dcache.demand_accesses::.cpu.data     48806604                       # number of demand (read+write) accesses
system.cpu.dcache.demand_accesses::total     48806604                       # number of demand (read+write) accesses
system.cpu.dcache.overall_accesses::.cpu.data     48806656                       # number of overall (read+write) accesses
system.cpu.dcache.overall_accesses::total     48806656                       # number of overall (read+write) accesses
system.cpu.dcache.demand_miss_rate::.cpu.data     0.061561                       # miss rate for demand accesses
system.cpu.dcache.demand_miss_rate::total     0.061561                       # miss rate for demand accesses
system.cpu.dcache.overall_miss_rate::.cpu.data     0.061561                       # miss rate for overall accesses
system.cpu.dcache.overall_miss_rate::total     0.061561                       # miss rate for overall accesses
system.cpu.dcache.demand_avg_miss_latency::.cpu.data 79459.337011                       # average overall miss latency
system.cpu.dcache.demand_avg_miss_latency::total 79459.337011                       # average overall miss latency
system.cpu.dcache.overall_avg_miss_latency::.cpu.data 79458.781647                       # average overall miss latency
system.cpu.dcache.overall_avg_miss_latency::total 79458.781647                       # average overall miss latency
system.cpu.dcache.blocked_cycles::no_mshrs            0                       # number of cycles access was blocked
system.cpu.dcache.blocked_cycles::no_targets            0                       # number of cycles access was blocked
system.cpu.dcache.blocked::no_mshrs                 0                       # number of cycles access was blocked
system.cpu.dcache.blocked::no_targets               0                       # number of cycles access was blocked
system.cpu.dcache.avg_blocked_cycles::no_mshrs          nan                       # average number of cycles each access was blocked
system.cpu.dcache.avg_blocked_cycles::no_targets          nan                       # average number of cycles each access was blocked
system.cpu.dcache.writebacks::.writebacks      1501382                       # number of writebacks
system.cpu.dcache.writebacks::total           1501382                       # number of writebacks
system.cpu.dcache.demand_mshr_hits::.cpu.data      1496260                       # number of demand (read+write) MSHR hits
system.cpu.dcache.demand_mshr_hits::total      1496260                       # number of demand (read+write) MSHR hits
system.cpu.dcache.overall_mshr_hits::.cpu.data      1496260                       # number of overall MSHR hits
system.cpu.dcache.overall_mshr_hits::total      1496260                       # number of overall MSHR hits
system.cpu.dcache.demand_mshr_misses::.cpu.data      1508315                       # number of demand (read+write) MSHR misses
system.cpu.dcache.demand_mshr_misses::total      1508315                       # number of demand (read+write) MSHR misses
system.cpu.dcache.overall_mshr_misses::.cpu.data      1508331                       # number of overall MSHR misses
system.cpu.dcache.overall_mshr_misses::total      1508331                       # number of overall MSHR misses
system.cpu.dcache.demand_mshr_miss_latency::.cpu.data 121973515500                       # number of demand (read+write) MSHR miss cycles
system.cpu.dcache.demand_mshr_miss_latency::total 121973515500                       # number of demand (read+write) MSHR miss cycles
system.cpu.dcache.overall_mshr_miss_latency::.cpu.data 121974790500                       # number of overall MSHR miss cycles
system.cpu.dcache.overall_mshr_miss_latency::total 121974790500                       # number of overall MSHR miss cycles
system.cpu.dcache.demand_mshr_miss_rate::.cpu.data     0.030904                       # mshr miss rate for demand accesses
system.cpu.dcache.demand_mshr_miss_rate::total     0.030904                       # mshr miss rate for demand accesses
system.cpu.dcache.overall_mshr_miss_rate::.cpu.data     0.030904                       # mshr miss rate for overall accesses
system.cpu.dcache.overall_mshr_miss_rate::total     0.030904                       # mshr miss rate for overall accesses
system.cpu.dcache.demand_avg_mshr_miss_latency::.cpu.data 80867.402035                       # average overall mshr miss latency
system.cpu.dcache.demand_avg_mshr_miss_latency::total 80867.402035                       # average overall mshr miss latency
system.cpu.dcache.overall_avg_mshr_miss_latency::.cpu.data 80867.389519                       # average overall mshr miss latency
system.cpu.dcache.overall_avg_mshr_miss_latency::total 80867.389519                       # average overall mshr miss latency
system.cpu.dcache.replacements                1507307                       # number of replacements
system.cpu.dcache.ReadReq_hits::.cpu.data     35699263                       # number of ReadReq hits
system.cpu.dcache.ReadReq_hits::total        35699263                       # number of ReadReq hits
system.cpu.dcache.ReadReq_misses::.cpu.data        11750                       # number of ReadReq misses
system.cpu.dcache.ReadReq_misses::total         11750                       # number of ReadReq misses
system.cpu.dcache.ReadReq_miss_latency::.cpu.data    273431000                       # number of ReadReq miss cycles
system.cpu.dcache.ReadReq_miss_latency::total    273431000                       # number of ReadReq miss cycles
system.cpu.dcache.ReadReq_accesses::.cpu.data     35711013                       # number of ReadReq accesses(hits+misses)
system.cpu.dcache.ReadReq_accesses::total     35711013                       # number of ReadReq accesses(hits+misses)
system.cpu.dcache.ReadReq_miss_rate::.cpu.data     0.000329                       # miss rate for ReadReq accesses
system.cpu.dcache.ReadReq_miss_rate::total     0.000329                       # miss rate for ReadReq accesses
system.cpu.dcache.ReadReq_avg_miss_latency::.cpu.data 23270.723404                       # average ReadReq miss latency
system.cpu.dcache.ReadReq_avg_miss_latency::total 23270.723404                       # average ReadReq miss latency
system.cpu.dcache.ReadReq_mshr_hits::.cpu.data            5                       # number of ReadReq MSHR hits
system.cpu.dcache.ReadReq_mshr_hits::total            5                       # number of ReadReq MSHR hits
system.cpu.dcache.ReadReq_mshr_misses::.cpu.data        11745                       # number of ReadReq MSHR misses
system.cpu.dcache.ReadReq_mshr_misses::total        11745                       # number of ReadReq MSHR misses
system.cpu.dcache.ReadReq_mshr_miss_latency::.cpu.data    261266000                       # number of ReadReq MSHR miss cycles
system.cpu.dcache.ReadReq_mshr_miss_latency::total    261266000                       # number of ReadReq MSHR miss cycles
system.cpu.dcache.ReadReq_mshr_miss_rate::.cpu.data     0.000329                       # mshr miss rate for ReadReq accesses
system.cpu.dcache.ReadReq_mshr_miss_rate::total     0.000329                       # mshr miss rate for ReadReq accesses
system.cpu.dcache.ReadReq_avg_mshr_miss_latency::.cpu.data 22244.870158                       # average ReadReq mshr miss latency
system.cpu.dcache.ReadReq_avg_mshr_miss_latency::total 22244.870158                       # average ReadReq mshr miss latency
system.cpu.dcache.WriteReq_hits::.cpu.data     10102766                       # number of WriteReq hits
system.cpu.dcache.WriteReq_hits::total       10102766                       # number of WriteReq hits
system.cpu.dcache.WriteReq_misses::.cpu.data      2992825                       # number of WriteReq misses
system.cpu.dcache.WriteReq_misses::total      2992825                       # number of WriteReq misses
system.cpu.dcache.WriteReq_miss_latency::.cpu.data 238468106500                       # number of WriteReq miss cycles
system.cpu.dcache.WriteReq_miss_latency::total 238468106500                       # number of WriteReq miss cycles
system.cpu.dcache.WriteReq_accesses::.cpu.data     13095591                       # number of WriteReq accesses(hits+misses)
system.cpu.dcache.WriteReq_accesses::total     13095591                       # number of WriteReq accesses(hits+misses)
system.cpu.dcache.WriteReq_miss_rate::.cpu.data     0.228537                       # miss rate for WriteReq accesses
system.cpu.dcache.WriteReq_miss_rate::total     0.228537                       # miss rate for WriteReq accesses
system.cpu.dcache.WriteReq_avg_miss_latency::.cpu.data 79679.936682                       # average WriteReq miss latency
system.cpu.dcache.WriteReq_avg_miss_latency::total 79679.936682                       # average WriteReq miss latency
system.cpu.dcache.WriteReq_mshr_hits::.cpu.data      1496255                       # number of WriteReq MSHR hits
system.cpu.dcache.WriteReq_mshr_hits::total      1496255                       # number of WriteReq MSHR hits
system.cpu.dcache.WriteReq_mshr_misses::.cpu.data      1496570                       # number of WriteReq MSHR misses
system.cpu.dcache.WriteReq_mshr_misses::total      1496570                       # number of WriteReq MSHR misses
system.cpu.dcache.WriteReq_mshr_miss_latency::.cpu.data 121712249500                       # number of WriteReq MSHR miss cycles
system.cpu.dcache.WriteReq_mshr_miss_latency::total 121712249500                       # number of WriteReq MSHR miss cycles
system.cpu.dcache.WriteReq_mshr_miss_rate::.cpu.data     0.114280                       # mshr miss rate for WriteReq accesses
system.cpu.dcache.WriteReq_mshr_miss_rate::total     0.114280                       # mshr miss rate for WriteReq accesses
system.cpu.dcache.WriteReq_avg_mshr_miss_latency::.cpu.data 81327.468478                       # average WriteReq mshr miss latency
system.cpu.dcache.WriteReq_avg_mshr_miss_latency::total 81327.468478                       # average WriteReq mshr miss latency
system.cpu.dcache.SoftPFReq_hits::.cpu.data           31                       # number of SoftPFReq hits
system.cpu.dcache.SoftPFReq_hits::total            31                       # number of SoftPFReq hits
system.cpu.dcache.SoftPFReq_misses::.cpu.data           21                       # number of SoftPFReq misses
system.cpu.dcache.SoftPFReq_misses::total           21                       # number of SoftPFReq misses
system.cpu.dcache.SoftPFReq_accesses::.cpu.data           52                       # number of SoftPFReq accesses(hits+misses)
system.cpu.dcache.SoftPFReq_accesses::total           52                       # number of SoftPFReq accesses(hits+misses)
system.cpu.dcache.SoftPFReq_miss_rate::.cpu.data     0.403846                       # miss rate for SoftPFReq accesses
system.cpu.dcache.SoftPFReq_miss_rate::total     0.403846                       # miss rate for SoftPFReq accesses
system.cpu.dcache.SoftPFReq_mshr_misses::.cpu.data           16                       # number of SoftPFReq MSHR misses
system.cpu.dcache.SoftPFReq_mshr_misses::total           16                       # number of SoftPFReq MSHR misses
system.cpu.dcache.SoftPFReq_mshr_miss_latency::.cpu.data      1275000                       # number of SoftPFReq MSHR miss cycles
system.cpu.dcache.SoftPFReq_mshr_miss_latency::total      1275000                       # number of SoftPFReq MSHR miss cycles
system.cpu.dcache.SoftPFReq_mshr_miss_rate::.cpu.data     0.307692                       # mshr miss rate for SoftPFReq accesses
system.cpu.dcache.SoftPFReq_mshr_miss_rate::total     0.307692                       # mshr miss rate for SoftPFReq accesses
system.cpu.dcache.SoftPFReq_avg_mshr_miss_latency::.cpu.data 79687.500000                       # average SoftPFReq mshr miss latency
system.cpu.dcache.SoftPFReq_avg_mshr_miss_latency::total 79687.500000                       # average SoftPFReq mshr miss latency
system.cpu.dcache.LoadLockedReq_hits::.cpu.data           13                       # number of LoadLockedReq hits
system.cpu.dcache.LoadLockedReq_hits::total           13                       # number of LoadLockedReq hits
system.cpu.dcache.LoadLockedReq_misses::.cpu.data            1                       # number of LoadLockedReq misses
system.cpu.dcache.LoadLockedReq_misses::total            1                       # number of LoadLockedReq misses
system.cpu.dcache.LoadLockedReq_miss_latency::.cpu.data        13000                       # number of LoadLockedReq miss cycles
system.cpu.dcache.LoadLockedReq_miss_latency::total        13000                       # number of LoadLockedReq miss cycles
system.cpu.dcache.LoadLockedReq_accesses::.cpu.data           14                       # number of LoadLockedReq accesses(hits+misses)
system.cpu.dcache.LoadLockedReq_accesses::total           14                       # number of LoadLockedReq accesses(hits+misses)
system.cpu.dcache.LoadLockedReq_miss_rate::.cpu.data     0.071429                       # miss rate for LoadLockedReq accesses
system.cpu.dcache.LoadLockedReq_miss_rate::total     0.071429                       # miss rate for LoadLockedReq accesses
system.cpu.dcache.LoadLockedReq_avg_miss_latency::.cpu.data        13000                       # average LoadLockedReq miss latency
system.cpu.dcache.LoadLockedReq_avg_miss_latency::total        13000                       # average LoadLockedReq miss latency
system.cpu.dcache.LoadLockedReq_mshr_misses::.cpu.data            1                       # number of LoadLockedReq MSHR misses
system.cpu.dcache.LoadLockedReq_mshr_misses::total            1                       # number of LoadLockedReq MSHR misses
system.cpu.dcache.LoadLockedReq_mshr_miss_latency::.cpu.data        12000                       # number of LoadLockedReq MSHR miss cycles
system.cpu.dcache.LoadLockedReq_mshr_miss_latency::total        12000                       # number of LoadLockedReq MSHR miss cycles
system.cpu.dcache.LoadLockedReq_mshr_miss_rate::.cpu.data     0.071429                       # mshr miss rate for LoadLockedReq accesses
system.cpu.dcache.LoadLockedReq_mshr_miss_rate::total     0.071429                       # mshr miss rate for LoadLockedReq accesses
system.cpu.dcache.LoadLockedReq_avg_mshr_miss_latency::.cpu.data        12000                       # average LoadLockedReq mshr miss latency
system.cpu.dcache.LoadLockedReq_avg_mshr_miss_latency::total        12000                       # average LoadLockedReq mshr miss latency
system.cpu.dcache.StoreCondReq_hits::.cpu.data           14                       # number of StoreCondReq hits
system.cpu.dcache.StoreCondReq_hits::total           14                       # number of StoreCondReq hits
system.cpu.dcache.StoreCondReq_accesses::.cpu.data           14                       # number of StoreCondReq accesses(hits+misses)
system.cpu.dcache.StoreCondReq_accesses::total           14                       # number of StoreCondReq accesses(hits+misses)
system.cpu.dcache.tags.pwrStateResidencyTicks::UNDEFINED 175527338500                       # Cumulative time (in ticks) in various power states
system.cpu.dcache.tags.tagsinuse          1023.429608                       # Cycle average of tags in use
system.cpu.dcache.tags.total_refs            47310418                       # Total number of references to valid blocks.
system.cpu.dcache.tags.sampled_refs           1508331                       # Sample count of references to valid blocks.
system.cpu.dcache.tags.avg_refs             31.366072                       # Average number of references to valid blocks.
system.cpu.dcache.tags.warmup_cycle            176500                       # Cycle when the warmup percentage was hit.
system.cpu.dcache.tags.occ_blocks::.cpu.data  1023.429608                       # Average occupied blocks per requestor
system.cpu.dcache.tags.occ_percent::.cpu.data     0.999443                       # Average percentage of cache occupancy
system.cpu.dcache.tags.occ_percent::total     0.999443                       # Average percentage of cache occupancy
system.cpu.dcache.tags.occ_task_id_blocks::1024         1024                       # Occupied blocks per task id
system.cpu.dcache.tags.age_task_id_blocks_1024::0           83                       # Occupied blocks per task id
system.cpu.dcache.tags.age_task_id_blocks_1024::1          766                       # Occupied blocks per task id
system.cpu.dcache.tags.age_task_id_blocks_1024::2          175                       # Occupied blocks per task id
system.cpu.dcache.tags.occ_task_id_percent::1024            1                       # Percentage of cache occupancy per task id
system.cpu.dcache.tags.tag_accesses          50315015                       # Number of tag accesses
system.cpu.dcache.tags.data_accesses         50315015                       # Number of data accesses
system.cpu.itb.walker.pwrStateResidencyTicks::UNDEFINED 175527338500                       # Cumulative time (in ticks) in various power states
system.cpu.itb.stage2_mmu.stage2_tlb.walker.pwrStateResidencyTicks::UNDEFINED 175527338500                       # Cumulative time (in ticks) in various power states

---------- End Simulation Statistics   ----------
