
---------- Begin Simulation Statistics ----------
final_tick                                67505642500                       # Number of ticks from beginning of simulation (restored from checkpoints and never reset)
host_inst_rate                                 493385                       # Simulator instruction rate (inst/s)
host_mem_usage                                 685724                       # Number of bytes of host memory used
host_op_rate                                   539920                       # Simulator op (including micro ops) rate (op/s)
host_seconds                                   202.68                       # Real time elapsed on the host
host_tick_rate                              333062466                       # Simulator tick rate (ticks/s)
sim_freq                                 1000000000000                       # Frequency of simulated ticks
sim_insts                                   100000001                       # Number of instructions simulated
sim_ops                                     109431937                       # Number of ops (including micro ops) simulated
sim_seconds                                  0.067506                       # Number of seconds simulated
sim_ticks                                 67505642500                       # Number of ticks simulated
system.cpu.branchPred.BTBCorrect                    0                       # Number of correct BTB predictions (this stat may not work properly.
system.cpu.branchPred.BTBHitPct             88.290683                       # BTB Hit Percentage
system.cpu.branchPred.BTBHits                 8694350                       # Number of BTB hits
system.cpu.branchPred.BTBLookups              9847415                       # Number of BTB lookups
system.cpu.branchPred.RASInCorrect                345                       # Number of incorrect RAS predictions.
system.cpu.branchPred.condIncorrect            145104                       # Number of conditional branches incorrect
system.cpu.branchPred.condPredicted          16354238                       # Number of conditional branches predicted
system.cpu.branchPred.indirectHits             300025                       # Number of indirect target hits.
system.cpu.branchPred.indirectLookups          437380                       # Number of indirect predictor lookups.
system.cpu.branchPred.indirectMisses           137355                       # Number of indirect misses.
system.cpu.branchPred.lookups                20417088                       # Number of BP lookups
system.cpu.branchPred.usedRAS                 1050673                       # Number of times the RAS was used to get a target.
system.cpu.branchPredindirectMispredicted         1111                       # Number of mispredicted indirect branches.
system.cpu.committedInsts                   100000001                       # Number of instructions committed
system.cpu.committedOps                     109431937                       # Number of ops (including micro ops) committed
system.cpu.cpi                               1.350113                       # CPI: cycles per instruction
system.cpu.discardedOps                        699582                       # Number of ops (including micro ops) which were discarded before commit
system.cpu.dtb.accesses                             0                       # DTB accesses
system.cpu.dtb.align_faults                         0                       # Number of TLB faults due to alignment restrictions
system.cpu.dtb.domain_faults                        0                       # Number of TLB faults due to domain restrictions
system.cpu.dtb.flush_entries                        0                       # Number of entries that have been flushed from TLB
system.cpu.dtb.flush_tlb                            0                       # Number of times complete TLB was flushed
system.cpu.dtb.flush_tlb_asid                       0                       # Number of times TLB was flushed by ASID
system.cpu.dtb.flush_tlb_mva                        0                       # Number of times TLB was flushed by MVA
system.cpu.dtb.flush_tlb_mva_asid                   0                       # Number of times TLB was flushed by MVA & ASID
system.cpu.dtb.hits                                 0                       # DTB hits
system.cpu.dtb.inst_accesses                        0                       # ITB inst accesses
system.cpu.dtb.inst_hits                            0                       # ITB inst hits
system.cpu.dtb.inst_misses                          0                       # ITB inst misses
system.cpu.dtb.misses                               0                       # DTB misses
system.cpu.dtb.perms_faults                         0                       # Number of TLB faults due to permissions restrictions
system.cpu.dtb.prefetch_faults                      0                       # Number of TLB faults due to prefetch
system.cpu.dtb.read_accesses                        0                       # DTB read accesses
system.cpu.dtb.read_hits                            0                       # DTB read hits
system.cpu.dtb.read_misses                          0                       # DTB read misses
system.cpu.dtb.stage2_mmu.stage2_tlb.accesses            0                       # DTB accesses
system.cpu.dtb.stage2_mmu.stage2_tlb.align_faults            0                       # Number of TLB faults due to alignment restrictions
system.cpu.dtb.stage2_mmu.stage2_tlb.domain_faults            0                       # Number of TLB faults due to domain restrictions
system.cpu.dtb.stage2_mmu.stage2_tlb.flush_entries            0                       # Number of entries that have been flushed from TLB
system.cpu.dtb.stage2_mmu.stage2_tlb.flush_tlb            0                       # Number of times complete TLB was flushed
system.cpu.dtb.stage2_mmu.stage2_tlb.flush_tlb_asid            0                       # Number of times TLB was flushed by ASID
system.cpu.dtb.stage2_mmu.stage2_tlb.flush_tlb_mva            0                       # Number of times TLB was flushed by MVA
system.cpu.dtb.stage2_mmu.stage2_tlb.flush_tlb_mva_asid            0                       # Number of times TLB was flushed by MVA & ASID
system.cpu.dtb.stage2_mmu.stage2_tlb.hits            0                       # DTB hits
system.cpu.dtb.stage2_mmu.stage2_tlb.inst_accesses            0                       # ITB inst accesses
system.cpu.dtb.stage2_mmu.stage2_tlb.inst_hits            0                       # ITB inst hits
system.cpu.dtb.stage2_mmu.stage2_tlb.inst_misses            0                       # ITB inst misses
system.cpu.dtb.stage2_mmu.stage2_tlb.misses            0                       # DTB misses
system.cpu.dtb.stage2_mmu.stage2_tlb.perms_faults            0                       # Number of TLB faults due to permissions restrictions
system.cpu.dtb.stage2_mmu.stage2_tlb.prefetch_faults            0                       # Number of TLB faults due to prefetch
system.cpu.dtb.stage2_mmu.stage2_tlb.read_accesses            0                       # DTB read accesses
system.cpu.dtb.stage2_mmu.stage2_tlb.read_hits            0                       # DTB read hits
system.cpu.dtb.stage2_mmu.stage2_tlb.read_misses            0                       # DTB read misses
system.cpu.dtb.stage2_mmu.stage2_tlb.walker.walkRequestOrigin_Requested::Data            0                       # Table walker requests started/completed, data/inst
system.cpu.dtb.stage2_mmu.stage2_tlb.walker.walkRequestOrigin_Requested::Inst            0                       # Table walker requests started/completed, data/inst
system.cpu.dtb.stage2_mmu.stage2_tlb.walker.walkRequestOrigin_Requested::total            0                       # Table walker requests started/completed, data/inst
system.cpu.dtb.stage2_mmu.stage2_tlb.walker.walkRequestOrigin_Completed::Data            0                       # Table walker requests started/completed, data/inst
system.cpu.dtb.stage2_mmu.stage2_tlb.walker.walkRequestOrigin_Completed::Inst            0                       # Table walker requests started/completed, data/inst
system.cpu.dtb.stage2_mmu.stage2_tlb.walker.walkRequestOrigin_Completed::total            0                       # Table walker requests started/completed, data/inst
system.cpu.dtb.stage2_mmu.stage2_tlb.walker.walkRequestOrigin::total            0                       # Table walker requests started/completed, data/inst
system.cpu.dtb.stage2_mmu.stage2_tlb.walker.walks            0                       # Table walker walks requested
system.cpu.dtb.stage2_mmu.stage2_tlb.write_accesses            0                       # DTB write accesses
system.cpu.dtb.stage2_mmu.stage2_tlb.write_hits            0                       # DTB write hits
system.cpu.dtb.stage2_mmu.stage2_tlb.write_misses            0                       # DTB write misses
system.cpu.dtb.walker.walkRequestOrigin_Requested::Data            0                       # Table walker requests started/completed, data/inst
system.cpu.dtb.walker.walkRequestOrigin_Requested::Inst            0                       # Table walker requests started/completed, data/inst
system.cpu.dtb.walker.walkRequestOrigin_Requested::total            0                       # Table walker requests started/completed, data/inst
system.cpu.dtb.walker.walkRequestOrigin_Completed::Data            0                       # Table walker requests started/completed, data/inst
system.cpu.dtb.walker.walkRequestOrigin_Completed::Inst            0                       # Table walker requests started/completed, data/inst
system.cpu.dtb.walker.walkRequestOrigin_Completed::total            0                       # Table walker requests started/completed, data/inst
system.cpu.dtb.walker.walkRequestOrigin::total            0                       # Table walker requests started/completed, data/inst
system.cpu.dtb.walker.walks                         0                       # Table walker walks requested
system.cpu.dtb.write_accesses                       0                       # DTB write accesses
system.cpu.dtb.write_hits                           0                       # DTB write hits
system.cpu.dtb.write_misses                         0                       # DTB write misses
system.cpu.fetch2.amo_instructions                  0                       # Number of memory atomic instructions successfully decoded
system.cpu.fetch2.fp_instructions                   0                       # Number of floating point instructions successfully decoded
system.cpu.fetch2.int_instructions           49614806                       # Number of integer instructions successfully decoded
system.cpu.fetch2.load_instructions          17146593                       # Number of memory load instructions successfully decoded
system.cpu.fetch2.store_instructions          9897440                       # Number of memory store instructions successfully decoded
system.cpu.fetch2.vec_instructions                  0                       # Number of SIMD instructions successfully decoded
system.cpu.idleCycles                        17532341                       # Total number of cycles that the object has spent stopped
system.cpu.ipc                               0.740679                       # IPC: instructions per cycle
system.cpu.itb.accesses                             0                       # DTB accesses
system.cpu.itb.align_faults                         0                       # Number of TLB faults due to alignment restrictions
system.cpu.itb.domain_faults                        0                       # Number of TLB faults due to domain restrictions
system.cpu.itb.flush_entries                        0                       # Number of entries that have been flushed from TLB
system.cpu.itb.flush_tlb                            0                       # Number of times complete TLB was flushed
system.cpu.itb.flush_tlb_asid                       0                       # Number of times TLB was flushed by ASID
system.cpu.itb.flush_tlb_mva                        0                       # Number of times TLB was flushed by MVA
system.cpu.itb.flush_tlb_mva_asid                   0                       # Number of times TLB was flushed by MVA & ASID
system.cpu.itb.hits                                 0                       # DTB hits
system.cpu.itb.inst_accesses                        0                       # ITB inst accesses
system.cpu.itb.inst_hits                            0                       # ITB inst hits
system.cpu.itb.inst_misses                          0                       # ITB inst misses
system.cpu.itb.misses                               0                       # DTB misses
system.cpu.itb.perms_faults                         0                       # Number of TLB faults due to permissions restrictions
system.cpu.itb.prefetch_faults                      0                       # Number of TLB faults due to prefetch
system.cpu.itb.read_accesses                        0                       # DTB read accesses
system.cpu.itb.read_hits                            0                       # DTB read hits
system.cpu.itb.read_misses                          0                       # DTB read misses
system.cpu.itb.stage2_mmu.stage2_tlb.accesses            0                       # DTB accesses
system.cpu.itb.stage2_mmu.stage2_tlb.align_faults            0                       # Number of TLB faults due to alignment restrictions
system.cpu.itb.stage2_mmu.stage2_tlb.domain_faults            0                       # Number of TLB faults due to domain restrictions
system.cpu.itb.stage2_mmu.stage2_tlb.flush_entries            0                       # Number of entries that have been flushed from TLB
system.cpu.itb.stage2_mmu.stage2_tlb.flush_tlb            0                       # Number of times complete TLB was flushed
system.cpu.itb.stage2_mmu.stage2_tlb.flush_tlb_asid            0                       # Number of times TLB was flushed by ASID
system.cpu.itb.stage2_mmu.stage2_tlb.flush_tlb_mva            0                       # Number of times TLB was flushed by MVA
system.cpu.itb.stage2_mmu.stage2_tlb.flush_tlb_mva_asid            0                       # Number of times TLB was flushed by MVA & ASID
system.cpu.itb.stage2_mmu.stage2_tlb.hits            0                       # DTB hits
system.cpu.itb.stage2_mmu.stage2_tlb.inst_accesses            0                       # ITB inst accesses
system.cpu.itb.stage2_mmu.stage2_tlb.inst_hits            0                       # ITB inst hits
system.cpu.itb.stage2_mmu.stage2_tlb.inst_misses            0                       # ITB inst misses
system.cpu.itb.stage2_mmu.stage2_tlb.misses            0                       # DTB misses
system.cpu.itb.stage2_mmu.stage2_tlb.perms_faults            0                       # Number of TLB faults due to permissions restrictions
system.cpu.itb.stage2_mmu.stage2_tlb.prefetch_faults            0                       # Number of TLB faults due to prefetch
system.cpu.itb.stage2_mmu.stage2_tlb.read_accesses            0                       # DTB read accesses
system.cpu.itb.stage2_mmu.stage2_tlb.read_hits            0                       # DTB read hits
system.cpu.itb.stage2_mmu.stage2_tlb.read_misses            0                       # DTB read misses
system.cpu.itb.stage2_mmu.stage2_tlb.walker.walkRequestOrigin_Requested::Data            0                       # Table walker requests started/completed, data/inst
system.cpu.itb.stage2_mmu.stage2_tlb.walker.walkRequestOrigin_Requested::Inst            0                       # Table walker requests started/completed, data/inst
system.cpu.itb.stage2_mmu.stage2_tlb.walker.walkRequestOrigin_Requested::total            0                       # Table walker requests started/completed, data/inst
system.cpu.itb.stage2_mmu.stage2_tlb.walker.walkRequestOrigin_Completed::Data            0                       # Table walker requests started/completed, data/inst
system.cpu.itb.stage2_mmu.stage2_tlb.walker.walkRequestOrigin_Completed::Inst            0                       # Table walker requests started/completed, data/inst
system.cpu.itb.stage2_mmu.stage2_tlb.walker.walkRequestOrigin_Completed::total            0                       # Table walker requests started/completed, data/inst
system.cpu.itb.stage2_mmu.stage2_tlb.walker.walkRequestOrigin::total            0                       # Table walker requests started/completed, data/inst
system.cpu.itb.stage2_mmu.stage2_tlb.walker.walks            0                       # Table walker walks requested
system.cpu.itb.stage2_mmu.stage2_tlb.write_accesses            0                       # DTB write accesses
system.cpu.itb.stage2_mmu.stage2_tlb.write_hits            0                       # DTB write hits
system.cpu.itb.stage2_mmu.stage2_tlb.write_misses            0                       # DTB write misses
system.cpu.itb.walker.walkRequestOrigin_Requested::Data            0                       # Table walker requests started/completed, data/inst
system.cpu.itb.walker.walkRequestOrigin_Requested::Inst            0                       # Table walker requests started/completed, data/inst
system.cpu.itb.walker.walkRequestOrigin_Requested::total            0                       # Table walker requests started/completed, data/inst
system.cpu.itb.walker.walkRequestOrigin_Completed::Data            0                       # Table walker requests started/completed, data/inst
system.cpu.itb.walker.walkRequestOrigin_Completed::Inst            0                       # Table walker requests started/completed, data/inst
system.cpu.itb.walker.walkRequestOrigin_Completed::total            0                       # Table walker requests started/completed, data/inst
system.cpu.itb.walker.walkRequestOrigin::total            0                       # Table walker requests started/completed, data/inst
system.cpu.itb.walker.walks                         0                       # Table walker walks requested
system.cpu.itb.write_accesses                       0                       # DTB write accesses
system.cpu.itb.write_hits                           0                       # DTB write hits
system.cpu.itb.write_misses                         0                       # DTB write misses
system.cpu.numCycles                        135011285                       # number of cpu cycles simulated
system.cpu.numFetchSuspends                         0                       # Number of times Execute suspended instruction fetching
system.cpu.numWorkItemsCompleted                    0                       # number of work items this cpu completed
system.cpu.numWorkItemsStarted                      0                       # number of work items this cpu started
system.cpu.op_class_0::No_OpClass                   0      0.00%      0.00% # Class of committed instruction
system.cpu.op_class_0::IntAlu                72955303     66.67%     66.67% # Class of committed instruction
system.cpu.op_class_0::IntMult                 568365      0.52%     67.19% # Class of committed instruction
system.cpu.op_class_0::IntDiv                       0      0.00%     67.19% # Class of committed instruction
system.cpu.op_class_0::FloatAdd                     0      0.00%     67.19% # Class of committed instruction
system.cpu.op_class_0::FloatCmp                     0      0.00%     67.19% # Class of committed instruction
system.cpu.op_class_0::FloatCvt                     0      0.00%     67.19% # Class of committed instruction
system.cpu.op_class_0::FloatMult                    0      0.00%     67.19% # Class of committed instruction
system.cpu.op_class_0::FloatMultAcc                 0      0.00%     67.19% # Class of committed instruction
system.cpu.op_class_0::FloatDiv                     0      0.00%     67.19% # Class of committed instruction
system.cpu.op_class_0::FloatMisc                    0      0.00%     67.19% # Class of committed instruction
system.cpu.op_class_0::FloatSqrt                    0      0.00%     67.19% # Class of committed instruction
system.cpu.op_class_0::SimdAdd                 241252      0.22%     67.41% # Class of committed instruction
system.cpu.op_class_0::SimdAddAcc                   0      0.00%     67.41% # Class of committed instruction
system.cpu.op_class_0::SimdAlu                 154720      0.14%     67.55% # Class of committed instruction
system.cpu.op_class_0::SimdCmp                 120626      0.11%     67.66% # Class of committed instruction
system.cpu.op_class_0::SimdCvt                      0      0.00%     67.66% # Class of committed instruction
system.cpu.op_class_0::SimdMisc                 44544      0.04%     67.70% # Class of committed instruction
system.cpu.op_class_0::SimdMult                     0      0.00%     67.70% # Class of committed instruction
system.cpu.op_class_0::SimdMultAcc                  0      0.00%     67.70% # Class of committed instruction
system.cpu.op_class_0::SimdShift                    0      0.00%     67.70% # Class of committed instruction
system.cpu.op_class_0::SimdShiftAcc                 0      0.00%     67.70% # Class of committed instruction
system.cpu.op_class_0::SimdDiv                      0      0.00%     67.70% # Class of committed instruction
system.cpu.op_class_0::SimdSqrt                     0      0.00%     67.70% # Class of committed instruction
system.cpu.op_class_0::SimdFloatAdd                 0      0.00%     67.70% # Class of committed instruction
system.cpu.op_class_0::SimdFloatAlu                 0      0.00%     67.70% # Class of committed instruction
system.cpu.op_class_0::SimdFloatCmp                 0      0.00%     67.70% # Class of committed instruction
system.cpu.op_class_0::SimdFloatCvt                 0      0.00%     67.70% # Class of committed instruction
system.cpu.op_class_0::SimdFloatDiv                 0      0.00%     67.70% # Class of committed instruction
system.cpu.op_class_0::SimdFloatMisc           166465      0.15%     67.85% # Class of committed instruction
system.cpu.op_class_0::SimdFloatMult                0      0.00%     67.85% # Class of committed instruction
system.cpu.op_class_0::SimdFloatMultAcc             0      0.00%     67.85% # Class of committed instruction
system.cpu.op_class_0::SimdFloatSqrt                0      0.00%     67.85% # Class of committed instruction
system.cpu.op_class_0::SimdReduceAdd                0      0.00%     67.85% # Class of committed instruction
system.cpu.op_class_0::SimdReduceAlu                0      0.00%     67.85% # Class of committed instruction
system.cpu.op_class_0::SimdReduceCmp                0      0.00%     67.85% # Class of committed instruction
system.cpu.op_class_0::SimdFloatReduceAdd            0      0.00%     67.85% # Class of committed instruction
system.cpu.op_class_0::SimdFloatReduceCmp            0      0.00%     67.85% # Class of committed instruction
system.cpu.op_class_0::SimdAes                      0      0.00%     67.85% # Class of committed instruction
system.cpu.op_class_0::SimdAesMix                   0      0.00%     67.85% # Class of committed instruction
system.cpu.op_class_0::SimdSha1Hash                 0      0.00%     67.85% # Class of committed instruction
system.cpu.op_class_0::SimdSha1Hash2                0      0.00%     67.85% # Class of committed instruction
system.cpu.op_class_0::SimdSha256Hash               0      0.00%     67.85% # Class of committed instruction
system.cpu.op_class_0::SimdSha256Hash2              0      0.00%     67.85% # Class of committed instruction
system.cpu.op_class_0::SimdShaSigma2                0      0.00%     67.85% # Class of committed instruction
system.cpu.op_class_0::SimdShaSigma3                0      0.00%     67.85% # Class of committed instruction
system.cpu.op_class_0::SimdPredAlu                  0      0.00%     67.85% # Class of committed instruction
system.cpu.op_class_0::MemRead               20646465     18.87%     86.72% # Class of committed instruction
system.cpu.op_class_0::MemWrite              14534197     13.28%    100.00% # Class of committed instruction
system.cpu.op_class_0::FloatMemRead                 0      0.00%    100.00% # Class of committed instruction
system.cpu.op_class_0::FloatMemWrite                0      0.00%    100.00% # Class of committed instruction
system.cpu.op_class_0::IprAccess                    0      0.00%    100.00% # Class of committed instruction
system.cpu.op_class_0::InstPrefetch                 0      0.00%    100.00% # Class of committed instruction
system.cpu.op_class_0::total                109431937                       # Class of committed instruction
system.cpu.tickCycles                       117478944                       # Number of cycles that the object actually ticked
system.cpu.workload.numSyscalls                    86                       # Number of system calls
system.membus.snoop_filter.hit_multi_requests            0                       # Number of requests hitting in the snoop filter with multiple (>1) holders of the requested data.
system.membus.snoop_filter.hit_multi_snoops            0                       # Number of snoops hitting in the snoop filter with multiple (>1) holders of the requested data.
system.membus.snoop_filter.hit_single_requests        26222                       # Number of requests hitting in the snoop filter with a single holder of the requested data.
system.membus.snoop_filter.hit_single_snoops            0                       # Number of snoops hitting in the snoop filter with a single holder of the requested data.
system.membus.snoop_filter.tot_requests         69206                       # Total number of requests made to the snoop filter.
system.membus.snoop_filter.tot_snoops               0                       # Total number of snoops made to the snoop filter.
system.tol2bus.snoop_filter.hit_multi_requests         3256                       # Number of requests hitting in the snoop filter with multiple (>1) holders of the requested data.
system.tol2bus.snoop_filter.hit_multi_snoops            0                       # Number of snoops hitting in the snoop filter with multiple (>1) holders of the requested data.
system.tol2bus.snoop_filter.hit_single_requests       934406                       # Number of requests hitting in the snoop filter with a single holder of the requested data.
system.tol2bus.snoop_filter.hit_single_snoops          396                       # Number of snoops hitting in the snoop filter with a single holder of the requested data.
system.tol2bus.snoop_filter.tot_requests      1869459                       # Total number of requests made to the snoop filter.
system.tol2bus.snoop_filter.tot_snoops            396                       # Total number of snoops made to the snoop filter.
system.membus.pwrStateResidencyTicks::UNDEFINED  67505642500                       # Cumulative time (in ticks) in various power states
system.membus.trans_dist::ReadResp               4172                       # Transaction distribution
system.membus.trans_dist::WritebackDirty        26044                       # Transaction distribution
system.membus.trans_dist::CleanEvict              178                       # Transaction distribution
system.membus.trans_dist::ReadExReq             38812                       # Transaction distribution
system.membus.trans_dist::ReadExResp            38812                       # Transaction distribution
system.membus.trans_dist::ReadSharedReq          4172                       # Transaction distribution
system.membus.pkt_count_system.l2.mem_side::system.mem_ctrls.port       112190                       # Packet count per connected master and slave (bytes)
system.membus.pkt_count::total                 112190                       # Packet count per connected master and slave (bytes)
system.membus.pkt_size_system.l2.mem_side::system.mem_ctrls.port      4417792                       # Cumulative packet size per connected master and slave (bytes)
system.membus.pkt_size::total                 4417792                       # Cumulative packet size per connected master and slave (bytes)
system.membus.snoops                                0                       # Total snoops (count)
system.membus.snoopTraffic                          0                       # Total snoop traffic (bytes)
system.membus.snoop_fanout::samples             42984                       # Request fanout histogram
system.membus.snoop_fanout::mean                    0                       # Request fanout histogram
system.membus.snoop_fanout::stdev                   0                       # Request fanout histogram
system.membus.snoop_fanout::underflows              0      0.00%      0.00% # Request fanout histogram
system.membus.snoop_fanout::0                   42984    100.00%    100.00% # Request fanout histogram
system.membus.snoop_fanout::1                       0      0.00%    100.00% # Request fanout histogram
system.membus.snoop_fanout::overflows               0      0.00%    100.00% # Request fanout histogram
system.membus.snoop_fanout::min_value               0                       # Request fanout histogram
system.membus.snoop_fanout::max_value               0                       # Request fanout histogram
system.membus.snoop_fanout::total               42984                       # Request fanout histogram
system.membus.respLayer1.occupancy          230182250                       # Layer occupancy (ticks)
system.membus.respLayer1.utilization              0.3                       # Layer utilization (%)
system.membus.reqLayer0.occupancy           183488500                       # Layer occupancy (ticks)
system.membus.reqLayer0.utilization               0.3                       # Layer utilization (%)
system.tol2bus.pwrStateResidencyTicks::UNDEFINED  67505642500                       # Cumulative time (in ticks) in various power states
system.tol2bus.trans_dist::ReadResp            890089                       # Transaction distribution
system.tol2bus.trans_dist::WritebackDirty        96501                       # Transaction distribution
system.tol2bus.trans_dist::WritebackClean       668523                       # Transaction distribution
system.tol2bus.trans_dist::CleanEvict          195993                       # Transaction distribution
system.tol2bus.trans_dist::ReadExReq            44967                       # Transaction distribution
system.tol2bus.trans_dist::ReadExResp           44967                       # Transaction distribution
system.tol2bus.trans_dist::ReadCleanReq        668922                       # Transaction distribution
system.tol2bus.trans_dist::ReadSharedReq       221168                       # Transaction distribution
system.tol2bus.pkt_count_system.cpu.icache.mem_side::system.l2.cpu_side      2006366                       # Packet count per connected master and slave (bytes)
system.tol2bus.pkt_count_system.cpu.dcache.mem_side::system.l2.cpu_side       798149                       # Packet count per connected master and slave (bytes)
system.tol2bus.pkt_count::total               2804515                       # Packet count per connected master and slave (bytes)
system.tol2bus.pkt_size_system.cpu.icache.mem_side::system.l2.cpu_side     85596416                       # Cumulative packet size per connected master and slave (bytes)
system.tol2bus.pkt_size_system.cpu.dcache.mem_side::system.l2.cpu_side     21541888                       # Cumulative packet size per connected master and slave (bytes)
system.tol2bus.pkt_size::total              107138304                       # Cumulative packet size per connected master and slave (bytes)
system.tol2bus.snoops                           26615                       # Total snoops (count)
system.tol2bus.snoopTraffic                   1666816                       # Total snoop traffic (bytes)
system.tol2bus.snoop_fanout::samples           961672                       # Request fanout histogram
system.tol2bus.snoop_fanout::mean            0.003802                       # Request fanout histogram
system.tol2bus.snoop_fanout::stdev           0.061541                       # Request fanout histogram
system.tol2bus.snoop_fanout::underflows             0      0.00%      0.00% # Request fanout histogram
system.tol2bus.snoop_fanout::0                 958016     99.62%     99.62% # Request fanout histogram
system.tol2bus.snoop_fanout::1                   3656      0.38%    100.00% # Request fanout histogram
system.tol2bus.snoop_fanout::2                      0      0.00%    100.00% # Request fanout histogram
system.tol2bus.snoop_fanout::overflows              0      0.00%    100.00% # Request fanout histogram
system.tol2bus.snoop_fanout::min_value              0                       # Request fanout histogram
system.tol2bus.snoop_fanout::max_value              1                       # Request fanout histogram
system.tol2bus.snoop_fanout::total             961672                       # Request fanout histogram
system.tol2bus.reqLayer0.occupancy         1673709500                       # Layer occupancy (ticks)
system.tol2bus.reqLayer0.utilization              2.5                       # Layer utilization (%)
system.tol2bus.respLayer1.occupancy         399204995                       # Layer occupancy (ticks)
system.tol2bus.respLayer1.utilization             0.6                       # Layer utilization (%)
system.tol2bus.respLayer0.occupancy        1003381999                       # Layer occupancy (ticks)
system.tol2bus.respLayer0.utilization             1.5                       # Layer utilization (%)
system.voltage_domain.voltage                       1                       # Voltage in Volts
system.clk_domain.clock                          1000                       # Clock period in ticks
system.l2.pwrStateResidencyTicks::UNDEFINED  67505642500                       # Cumulative time (in ticks) in various power states
system.l2.demand_hits::.cpu.inst               668410                       # number of demand (read+write) hits
system.l2.demand_hits::.cpu.data               223657                       # number of demand (read+write) hits
system.l2.demand_hits::total                   892067                       # number of demand (read+write) hits
system.l2.overall_hits::.cpu.inst              668410                       # number of overall hits
system.l2.overall_hits::.cpu.data              223657                       # number of overall hits
system.l2.overall_hits::total                  892067                       # number of overall hits
system.l2.demand_misses::.cpu.inst                512                       # number of demand (read+write) misses
system.l2.demand_misses::.cpu.data              42478                       # number of demand (read+write) misses
system.l2.demand_misses::total                  42990                       # number of demand (read+write) misses
system.l2.overall_misses::.cpu.inst               512                       # number of overall misses
system.l2.overall_misses::.cpu.data             42478                       # number of overall misses
system.l2.overall_misses::total                 42990                       # number of overall misses
system.l2.demand_miss_latency::.cpu.inst     39338000                       # number of demand (read+write) miss cycles
system.l2.demand_miss_latency::.cpu.data   3472001500                       # number of demand (read+write) miss cycles
system.l2.demand_miss_latency::total       3511339500                       # number of demand (read+write) miss cycles
system.l2.overall_miss_latency::.cpu.inst     39338000                       # number of overall miss cycles
system.l2.overall_miss_latency::.cpu.data   3472001500                       # number of overall miss cycles
system.l2.overall_miss_latency::total      3511339500                       # number of overall miss cycles
system.l2.demand_accesses::.cpu.inst           668922                       # number of demand (read+write) accesses
system.l2.demand_accesses::.cpu.data           266135                       # number of demand (read+write) accesses
system.l2.demand_accesses::total               935057                       # number of demand (read+write) accesses
system.l2.overall_accesses::.cpu.inst          668922                       # number of overall (read+write) accesses
system.l2.overall_accesses::.cpu.data          266135                       # number of overall (read+write) accesses
system.l2.overall_accesses::total              935057                       # number of overall (read+write) accesses
system.l2.demand_miss_rate::.cpu.inst        0.000765                       # miss rate for demand accesses
system.l2.demand_miss_rate::.cpu.data        0.159611                       # miss rate for demand accesses
system.l2.demand_miss_rate::total            0.045976                       # miss rate for demand accesses
system.l2.overall_miss_rate::.cpu.inst       0.000765                       # miss rate for overall accesses
system.l2.overall_miss_rate::.cpu.data       0.159611                       # miss rate for overall accesses
system.l2.overall_miss_rate::total           0.045976                       # miss rate for overall accesses
system.l2.demand_avg_miss_latency::.cpu.inst 76832.031250                       # average overall miss latency
system.l2.demand_avg_miss_latency::.cpu.data 81736.463581                       # average overall miss latency
system.l2.demand_avg_miss_latency::total 81678.053036                       # average overall miss latency
system.l2.overall_avg_miss_latency::.cpu.inst 76832.031250                       # average overall miss latency
system.l2.overall_avg_miss_latency::.cpu.data 81736.463581                       # average overall miss latency
system.l2.overall_avg_miss_latency::total 81678.053036                       # average overall miss latency
system.l2.blocked_cycles::no_mshrs                  0                       # number of cycles access was blocked
system.l2.blocked_cycles::no_targets                0                       # number of cycles access was blocked
system.l2.blocked::no_mshrs                         0                       # number of cycles access was blocked
system.l2.blocked::no_targets                       0                       # number of cycles access was blocked
system.l2.avg_blocked_cycles::no_mshrs            nan                       # average number of cycles each access was blocked
system.l2.avg_blocked_cycles::no_targets          nan                       # average number of cycles each access was blocked
system.l2.writebacks::.writebacks               26044                       # number of writebacks
system.l2.writebacks::total                     26044                       # number of writebacks
system.l2.demand_mshr_hits::.cpu.inst               1                       # number of demand (read+write) MSHR hits
system.l2.demand_mshr_hits::.cpu.data               5                       # number of demand (read+write) MSHR hits
system.l2.demand_mshr_hits::total                   6                       # number of demand (read+write) MSHR hits
system.l2.overall_mshr_hits::.cpu.inst              1                       # number of overall MSHR hits
system.l2.overall_mshr_hits::.cpu.data              5                       # number of overall MSHR hits
system.l2.overall_mshr_hits::total                  6                       # number of overall MSHR hits
system.l2.demand_mshr_misses::.cpu.inst           511                       # number of demand (read+write) MSHR misses
system.l2.demand_mshr_misses::.cpu.data         42473                       # number of demand (read+write) MSHR misses
system.l2.demand_mshr_misses::total             42984                       # number of demand (read+write) MSHR misses
system.l2.overall_mshr_misses::.cpu.inst          511                       # number of overall MSHR misses
system.l2.overall_mshr_misses::.cpu.data        42473                       # number of overall MSHR misses
system.l2.overall_mshr_misses::total            42984                       # number of overall MSHR misses
system.l2.demand_mshr_miss_latency::.cpu.inst     34163500                       # number of demand (read+write) MSHR miss cycles
system.l2.demand_mshr_miss_latency::.cpu.data   3046930500                       # number of demand (read+write) MSHR miss cycles
system.l2.demand_mshr_miss_latency::total   3081094000                       # number of demand (read+write) MSHR miss cycles
system.l2.overall_mshr_miss_latency::.cpu.inst     34163500                       # number of overall MSHR miss cycles
system.l2.overall_mshr_miss_latency::.cpu.data   3046930500                       # number of overall MSHR miss cycles
system.l2.overall_mshr_miss_latency::total   3081094000                       # number of overall MSHR miss cycles
system.l2.demand_mshr_miss_rate::.cpu.inst     0.000764                       # mshr miss rate for demand accesses
system.l2.demand_mshr_miss_rate::.cpu.data     0.159592                       # mshr miss rate for demand accesses
system.l2.demand_mshr_miss_rate::total       0.045969                       # mshr miss rate for demand accesses
system.l2.overall_mshr_miss_rate::.cpu.inst     0.000764                       # mshr miss rate for overall accesses
system.l2.overall_mshr_miss_rate::.cpu.data     0.159592                       # mshr miss rate for overall accesses
system.l2.overall_mshr_miss_rate::total      0.045969                       # mshr miss rate for overall accesses
system.l2.demand_avg_mshr_miss_latency::.cpu.inst 66856.164384                       # average overall mshr miss latency
system.l2.demand_avg_mshr_miss_latency::.cpu.data 71738.057119                       # average overall mshr miss latency
system.l2.demand_avg_mshr_miss_latency::total 71680.020473                       # average overall mshr miss latency
system.l2.overall_avg_mshr_miss_latency::.cpu.inst 66856.164384                       # average overall mshr miss latency
system.l2.overall_avg_mshr_miss_latency::.cpu.data 71738.057119                       # average overall mshr miss latency
system.l2.overall_avg_mshr_miss_latency::total 71680.020473                       # average overall mshr miss latency
system.l2.replacements                          26615                       # number of replacements
system.l2.WritebackDirty_hits::.writebacks        70457                       # number of WritebackDirty hits
system.l2.WritebackDirty_hits::total            70457                       # number of WritebackDirty hits
system.l2.WritebackDirty_accesses::.writebacks        70457                       # number of WritebackDirty accesses(hits+misses)
system.l2.WritebackDirty_accesses::total        70457                       # number of WritebackDirty accesses(hits+misses)
system.l2.WritebackClean_hits::.writebacks       668514                       # number of WritebackClean hits
system.l2.WritebackClean_hits::total           668514                       # number of WritebackClean hits
system.l2.WritebackClean_accesses::.writebacks       668514                       # number of WritebackClean accesses(hits+misses)
system.l2.WritebackClean_accesses::total       668514                       # number of WritebackClean accesses(hits+misses)
system.l2.CleanEvict_mshr_misses::.writebacks            3                       # number of CleanEvict MSHR misses
system.l2.CleanEvict_mshr_misses::total             3                       # number of CleanEvict MSHR misses
system.l2.CleanEvict_mshr_miss_rate::.writebacks          inf                       # mshr miss rate for CleanEvict accesses
system.l2.CleanEvict_mshr_miss_rate::total          inf                       # mshr miss rate for CleanEvict accesses
system.l2.ReadExReq_hits::.cpu.data              6155                       # number of ReadExReq hits
system.l2.ReadExReq_hits::total                  6155                       # number of ReadExReq hits
system.l2.ReadExReq_misses::.cpu.data           38812                       # number of ReadExReq misses
system.l2.ReadExReq_misses::total               38812                       # number of ReadExReq misses
system.l2.ReadExReq_miss_latency::.cpu.data   3140645000                       # number of ReadExReq miss cycles
system.l2.ReadExReq_miss_latency::total    3140645000                       # number of ReadExReq miss cycles
system.l2.ReadExReq_accesses::.cpu.data         44967                       # number of ReadExReq accesses(hits+misses)
system.l2.ReadExReq_accesses::total             44967                       # number of ReadExReq accesses(hits+misses)
system.l2.ReadExReq_miss_rate::.cpu.data     0.863122                       # miss rate for ReadExReq accesses
system.l2.ReadExReq_miss_rate::total         0.863122                       # miss rate for ReadExReq accesses
system.l2.ReadExReq_avg_miss_latency::.cpu.data 80919.432134                       # average ReadExReq miss latency
system.l2.ReadExReq_avg_miss_latency::total 80919.432134                       # average ReadExReq miss latency
system.l2.ReadExReq_mshr_misses::.cpu.data        38812                       # number of ReadExReq MSHR misses
system.l2.ReadExReq_mshr_misses::total          38812                       # number of ReadExReq MSHR misses
system.l2.ReadExReq_mshr_miss_latency::.cpu.data   2752525000                       # number of ReadExReq MSHR miss cycles
system.l2.ReadExReq_mshr_miss_latency::total   2752525000                       # number of ReadExReq MSHR miss cycles
system.l2.ReadExReq_mshr_miss_rate::.cpu.data     0.863122                       # mshr miss rate for ReadExReq accesses
system.l2.ReadExReq_mshr_miss_rate::total     0.863122                       # mshr miss rate for ReadExReq accesses
system.l2.ReadExReq_avg_mshr_miss_latency::.cpu.data 70919.432134                       # average ReadExReq mshr miss latency
system.l2.ReadExReq_avg_mshr_miss_latency::total 70919.432134                       # average ReadExReq mshr miss latency
system.l2.ReadCleanReq_hits::.cpu.inst         668410                       # number of ReadCleanReq hits
system.l2.ReadCleanReq_hits::total             668410                       # number of ReadCleanReq hits
system.l2.ReadCleanReq_misses::.cpu.inst          512                       # number of ReadCleanReq misses
system.l2.ReadCleanReq_misses::total              512                       # number of ReadCleanReq misses
system.l2.ReadCleanReq_miss_latency::.cpu.inst     39338000                       # number of ReadCleanReq miss cycles
system.l2.ReadCleanReq_miss_latency::total     39338000                       # number of ReadCleanReq miss cycles
system.l2.ReadCleanReq_accesses::.cpu.inst       668922                       # number of ReadCleanReq accesses(hits+misses)
system.l2.ReadCleanReq_accesses::total         668922                       # number of ReadCleanReq accesses(hits+misses)
system.l2.ReadCleanReq_miss_rate::.cpu.inst     0.000765                       # miss rate for ReadCleanReq accesses
system.l2.ReadCleanReq_miss_rate::total      0.000765                       # miss rate for ReadCleanReq accesses
system.l2.ReadCleanReq_avg_miss_latency::.cpu.inst 76832.031250                       # average ReadCleanReq miss latency
system.l2.ReadCleanReq_avg_miss_latency::total 76832.031250                       # average ReadCleanReq miss latency
system.l2.ReadCleanReq_mshr_hits::.cpu.inst            1                       # number of ReadCleanReq MSHR hits
system.l2.ReadCleanReq_mshr_hits::total             1                       # number of ReadCleanReq MSHR hits
system.l2.ReadCleanReq_mshr_misses::.cpu.inst          511                       # number of ReadCleanReq MSHR misses
system.l2.ReadCleanReq_mshr_misses::total          511                       # number of ReadCleanReq MSHR misses
system.l2.ReadCleanReq_mshr_miss_latency::.cpu.inst     34163500                       # number of ReadCleanReq MSHR miss cycles
system.l2.ReadCleanReq_mshr_miss_latency::total     34163500                       # number of ReadCleanReq MSHR miss cycles
system.l2.ReadCleanReq_mshr_miss_rate::.cpu.inst     0.000764                       # mshr miss rate for ReadCleanReq accesses
system.l2.ReadCleanReq_mshr_miss_rate::total     0.000764                       # mshr miss rate for ReadCleanReq accesses
system.l2.ReadCleanReq_avg_mshr_miss_latency::.cpu.inst 66856.164384                       # average ReadCleanReq mshr miss latency
system.l2.ReadCleanReq_avg_mshr_miss_latency::total 66856.164384                       # average ReadCleanReq mshr miss latency
system.l2.ReadSharedReq_hits::.cpu.data        217502                       # number of ReadSharedReq hits
system.l2.ReadSharedReq_hits::total            217502                       # number of ReadSharedReq hits
system.l2.ReadSharedReq_misses::.cpu.data         3666                       # number of ReadSharedReq misses
system.l2.ReadSharedReq_misses::total            3666                       # number of ReadSharedReq misses
system.l2.ReadSharedReq_miss_latency::.cpu.data    331356500                       # number of ReadSharedReq miss cycles
system.l2.ReadSharedReq_miss_latency::total    331356500                       # number of ReadSharedReq miss cycles
system.l2.ReadSharedReq_accesses::.cpu.data       221168                       # number of ReadSharedReq accesses(hits+misses)
system.l2.ReadSharedReq_accesses::total        221168                       # number of ReadSharedReq accesses(hits+misses)
system.l2.ReadSharedReq_miss_rate::.cpu.data     0.016576                       # miss rate for ReadSharedReq accesses
system.l2.ReadSharedReq_miss_rate::total     0.016576                       # miss rate for ReadSharedReq accesses
system.l2.ReadSharedReq_avg_miss_latency::.cpu.data 90386.388434                       # average ReadSharedReq miss latency
system.l2.ReadSharedReq_avg_miss_latency::total 90386.388434                       # average ReadSharedReq miss latency
system.l2.ReadSharedReq_mshr_hits::.cpu.data            5                       # number of ReadSharedReq MSHR hits
system.l2.ReadSharedReq_mshr_hits::total            5                       # number of ReadSharedReq MSHR hits
system.l2.ReadSharedReq_mshr_misses::.cpu.data         3661                       # number of ReadSharedReq MSHR misses
system.l2.ReadSharedReq_mshr_misses::total         3661                       # number of ReadSharedReq MSHR misses
system.l2.ReadSharedReq_mshr_miss_latency::.cpu.data    294405500                       # number of ReadSharedReq MSHR miss cycles
system.l2.ReadSharedReq_mshr_miss_latency::total    294405500                       # number of ReadSharedReq MSHR miss cycles
system.l2.ReadSharedReq_mshr_miss_rate::.cpu.data     0.016553                       # mshr miss rate for ReadSharedReq accesses
system.l2.ReadSharedReq_mshr_miss_rate::total     0.016553                       # mshr miss rate for ReadSharedReq accesses
system.l2.ReadSharedReq_avg_mshr_miss_latency::.cpu.data 80416.689429                       # average ReadSharedReq mshr miss latency
system.l2.ReadSharedReq_avg_mshr_miss_latency::total 80416.689429                       # average ReadSharedReq mshr miss latency
system.l2.tags.pwrStateResidencyTicks::UNDEFINED  67505642500                       # Cumulative time (in ticks) in various power states
system.l2.tags.tagsinuse                 15548.494110                       # Cycle average of tags in use
system.l2.tags.total_refs                     1866194                       # Total number of references to valid blocks.
system.l2.tags.sampled_refs                     42999                       # Sample count of references to valid blocks.
system.l2.tags.avg_refs                     43.400870                       # Average number of references to valid blocks.
system.l2.tags.warmup_cycle                     77000                       # Cycle when the warmup percentage was hit.
system.l2.tags.occ_blocks::.writebacks       9.238900                       # Average occupied blocks per requestor
system.l2.tags.occ_blocks::.cpu.inst        76.997286                       # Average occupied blocks per requestor
system.l2.tags.occ_blocks::.cpu.data     15462.257925                       # Average occupied blocks per requestor
system.l2.tags.occ_percent::.writebacks      0.000564                       # Average percentage of cache occupancy
system.l2.tags.occ_percent::.cpu.inst        0.004700                       # Average percentage of cache occupancy
system.l2.tags.occ_percent::.cpu.data        0.943741                       # Average percentage of cache occupancy
system.l2.tags.occ_percent::total            0.949005                       # Average percentage of cache occupancy
system.l2.tags.occ_task_id_blocks::1024         16384                       # Occupied blocks per task id
system.l2.tags.age_task_id_blocks_1024::0            3                       # Occupied blocks per task id
system.l2.tags.age_task_id_blocks_1024::1           30                       # Occupied blocks per task id
system.l2.tags.age_task_id_blocks_1024::2          424                       # Occupied blocks per task id
system.l2.tags.age_task_id_blocks_1024::3         3904                       # Occupied blocks per task id
system.l2.tags.age_task_id_blocks_1024::4        12023                       # Occupied blocks per task id
system.l2.tags.occ_task_id_percent::1024            1                       # Percentage of cache occupancy per task id
system.l2.tags.tag_accesses                  14972623                       # Number of tag accesses
system.l2.tags.data_accesses                 14972623                       # Number of data accesses
system.cpu_voltage_domain.voltage                   1                       # Voltage in Volts
system.mem_ctrls.pwrStateResidencyTicks::UNDEFINED  67505642500                       # Cumulative time (in ticks) in various power states
system.mem_ctrls.bytes_read::.cpu.inst          32704                       # Number of bytes read from this memory
system.mem_ctrls.bytes_read::.cpu.data        2718272                       # Number of bytes read from this memory
system.mem_ctrls.bytes_read::total            2750976                       # Number of bytes read from this memory
system.mem_ctrls.bytes_inst_read::.cpu.inst        32704                       # Number of instructions bytes read from this memory
system.mem_ctrls.bytes_inst_read::total         32704                       # Number of instructions bytes read from this memory
system.mem_ctrls.bytes_written::.writebacks      1666816                       # Number of bytes written to this memory
system.mem_ctrls.bytes_written::total         1666816                       # Number of bytes written to this memory
system.mem_ctrls.num_reads::.cpu.inst             511                       # Number of read requests responded to by this memory
system.mem_ctrls.num_reads::.cpu.data           42473                       # Number of read requests responded to by this memory
system.mem_ctrls.num_reads::total               42984                       # Number of read requests responded to by this memory
system.mem_ctrls.num_writes::.writebacks        26044                       # Number of write requests responded to by this memory
system.mem_ctrls.num_writes::total              26044                       # Number of write requests responded to by this memory
system.mem_ctrls.bw_read::.cpu.inst            484463                       # Total read bandwidth from this memory (bytes/s)
system.mem_ctrls.bw_read::.cpu.data          40267330                       # Total read bandwidth from this memory (bytes/s)
system.mem_ctrls.bw_read::total              40751793                       # Total read bandwidth from this memory (bytes/s)
system.mem_ctrls.bw_inst_read::.cpu.inst       484463                       # Instruction read bandwidth from this memory (bytes/s)
system.mem_ctrls.bw_inst_read::total           484463                       # Instruction read bandwidth from this memory (bytes/s)
system.mem_ctrls.bw_write::.writebacks       24691506                       # Write bandwidth from this memory (bytes/s)
system.mem_ctrls.bw_write::total             24691506                       # Write bandwidth from this memory (bytes/s)
system.mem_ctrls.bw_total::.writebacks       24691506                       # Total bandwidth to/from this memory (bytes/s)
system.mem_ctrls.bw_total::.cpu.inst           484463                       # Total bandwidth to/from this memory (bytes/s)
system.mem_ctrls.bw_total::.cpu.data         40267330                       # Total bandwidth to/from this memory (bytes/s)
system.mem_ctrls.bw_total::total             65443300                       # Total bandwidth to/from this memory (bytes/s)
system.mem_ctrls.avgPriority_.writebacks::samples     26044.00                       # Average QoS priority value for accepted requests
system.mem_ctrls.avgPriority_.cpu.inst::samples       511.00                       # Average QoS priority value for accepted requests
system.mem_ctrls.avgPriority_.cpu.data::samples     42468.00                       # Average QoS priority value for accepted requests
system.mem_ctrls.priorityMinLatency      0.000000018750                       # per QoS priority minimum request to response latency (s)
system.mem_ctrls.priorityMaxLatency      0.001858754500                       # per QoS priority maximum request to response latency (s)
system.mem_ctrls.numReadWriteTurnArounds         1454                       # Number of turnarounds from READ to WRITE
system.mem_ctrls.numWriteReadTurnArounds         1454                       # Number of turnarounds from WRITE to READ
system.mem_ctrls.numStayReadState              129023                       # Number of times bus staying in READ state
system.mem_ctrls.numStayWriteState              24625                       # Number of times bus staying in WRITE state
system.mem_ctrls.readReqs                       42984                       # Number of read requests accepted
system.mem_ctrls.writeReqs                      26044                       # Number of write requests accepted
system.mem_ctrls.readBursts                     42984                       # Number of DRAM read bursts, including those serviced by the write queue
system.mem_ctrls.writeBursts                    26044                       # Number of DRAM write bursts, including those merged in the write queue
system.mem_ctrls.servicedByWrQ                      5                       # Number of DRAM read bursts serviced by the write queue
system.mem_ctrls.mergedWrBursts                     0                       # Number of DRAM write bursts merged with an existing one
system.mem_ctrls.neitherReadNorWriteReqs            0                       # Number of requests that are neither read nor write
system.mem_ctrls.perBankRdBursts::0              2671                       # Per bank write bursts
system.mem_ctrls.perBankRdBursts::1              2542                       # Per bank write bursts
system.mem_ctrls.perBankRdBursts::2              2533                       # Per bank write bursts
system.mem_ctrls.perBankRdBursts::3              2797                       # Per bank write bursts
system.mem_ctrls.perBankRdBursts::4              2895                       # Per bank write bursts
system.mem_ctrls.perBankRdBursts::5              2655                       # Per bank write bursts
system.mem_ctrls.perBankRdBursts::6              2661                       # Per bank write bursts
system.mem_ctrls.perBankRdBursts::7              2679                       # Per bank write bursts
system.mem_ctrls.perBankRdBursts::8              2673                       # Per bank write bursts
system.mem_ctrls.perBankRdBursts::9              2692                       # Per bank write bursts
system.mem_ctrls.perBankRdBursts::10             2671                       # Per bank write bursts
system.mem_ctrls.perBankRdBursts::11             2702                       # Per bank write bursts
system.mem_ctrls.perBankRdBursts::12             2718                       # Per bank write bursts
system.mem_ctrls.perBankRdBursts::13             2667                       # Per bank write bursts
system.mem_ctrls.perBankRdBursts::14             2739                       # Per bank write bursts
system.mem_ctrls.perBankRdBursts::15             2684                       # Per bank write bursts
system.mem_ctrls.perBankWrBursts::0              1589                       # Per bank write bursts
system.mem_ctrls.perBankWrBursts::1              1489                       # Per bank write bursts
system.mem_ctrls.perBankWrBursts::2              1496                       # Per bank write bursts
system.mem_ctrls.perBankWrBursts::3              1701                       # Per bank write bursts
system.mem_ctrls.perBankWrBursts::4              1848                       # Per bank write bursts
system.mem_ctrls.perBankWrBursts::5              1630                       # Per bank write bursts
system.mem_ctrls.perBankWrBursts::6              1637                       # Per bank write bursts
system.mem_ctrls.perBankWrBursts::7              1631                       # Per bank write bursts
system.mem_ctrls.perBankWrBursts::8              1626                       # Per bank write bursts
system.mem_ctrls.perBankWrBursts::9              1618                       # Per bank write bursts
system.mem_ctrls.perBankWrBursts::10             1614                       # Per bank write bursts
system.mem_ctrls.perBankWrBursts::11             1615                       # Per bank write bursts
system.mem_ctrls.perBankWrBursts::12             1641                       # Per bank write bursts
system.mem_ctrls.perBankWrBursts::13             1622                       # Per bank write bursts
system.mem_ctrls.perBankWrBursts::14             1643                       # Per bank write bursts
system.mem_ctrls.perBankWrBursts::15             1627                       # Per bank write bursts
system.mem_ctrls.avgRdQLen                       1.04                       # Average read queue length when enqueuing
system.mem_ctrls.avgWrQLen                      22.41                       # Average write queue length when enqueuing
system.mem_ctrls.totQLat                    509037250                       # Total ticks spent queuing
system.mem_ctrls.totBusLat                  214895000                       # Total ticks spent in databus transfers
system.mem_ctrls.totMemAccLat              1314893500                       # Total ticks spent from burst creation until serviced by the DRAM
system.mem_ctrls.avgQLat                     11843.86                       # Average queueing delay per DRAM burst
system.mem_ctrls.avgBusLat                    5000.00                       # Average bus latency per DRAM burst
system.mem_ctrls.avgMemAccLat                30593.86                       # Average memory access latency per DRAM burst
system.mem_ctrls.numRdRetry                         0                       # Number of times read queue was full causing retry
system.mem_ctrls.numWrRetry                         0                       # Number of times write queue was full causing retry
system.mem_ctrls.readRowHits                    26295                       # Number of row buffer hits during reads
system.mem_ctrls.writeRowHits                   19362                       # Number of row buffer hits during writes
system.mem_ctrls.readRowHitRate                 61.18                       # Row buffer hit rate for reads
system.mem_ctrls.writeRowHitRate                74.34                       # Row buffer hit rate for writes
system.mem_ctrls.readPktSize::0                     0                       # Read request sizes (log2)
system.mem_ctrls.readPktSize::1                     0                       # Read request sizes (log2)
system.mem_ctrls.readPktSize::2                     0                       # Read request sizes (log2)
system.mem_ctrls.readPktSize::3                     0                       # Read request sizes (log2)
system.mem_ctrls.readPktSize::4                     0                       # Read request sizes (log2)
system.mem_ctrls.readPktSize::5                     0                       # Read request sizes (log2)
system.mem_ctrls.readPktSize::6                 42984                       # Read request sizes (log2)
system.mem_ctrls.writePktSize::0                    0                       # Write request sizes (log2)
system.mem_ctrls.writePktSize::1                    0                       # Write request sizes (log2)
system.mem_ctrls.writePktSize::2                    0                       # Write request sizes (log2)
system.mem_ctrls.writePktSize::3                    0                       # Write request sizes (log2)
system.mem_ctrls.writePktSize::4                    0                       # Write request sizes (log2)
system.mem_ctrls.writePktSize::5                    0                       # Write request sizes (log2)
system.mem_ctrls.writePktSize::6                26044                       # Write request sizes (log2)
system.mem_ctrls.rdQLenPdf::0                   41696                       # What read queue length does an incoming req see
system.mem_ctrls.rdQLenPdf::1                    1276                       # What read queue length does an incoming req see
system.mem_ctrls.rdQLenPdf::2                       7                       # What read queue length does an incoming req see
system.mem_ctrls.rdQLenPdf::3                       0                       # What read queue length does an incoming req see
system.mem_ctrls.rdQLenPdf::4                       0                       # What read queue length does an incoming req see
system.mem_ctrls.rdQLenPdf::5                       0                       # What read queue length does an incoming req see
system.mem_ctrls.rdQLenPdf::6                       0                       # What read queue length does an incoming req see
system.mem_ctrls.rdQLenPdf::7                       0                       # What read queue length does an incoming req see
system.mem_ctrls.rdQLenPdf::8                       0                       # What read queue length does an incoming req see
system.mem_ctrls.rdQLenPdf::9                       0                       # What read queue length does an incoming req see
system.mem_ctrls.rdQLenPdf::10                      0                       # What read queue length does an incoming req see
system.mem_ctrls.rdQLenPdf::11                      0                       # What read queue length does an incoming req see
system.mem_ctrls.rdQLenPdf::12                      0                       # What read queue length does an incoming req see
system.mem_ctrls.rdQLenPdf::13                      0                       # What read queue length does an incoming req see
system.mem_ctrls.rdQLenPdf::14                      0                       # What read queue length does an incoming req see
system.mem_ctrls.rdQLenPdf::15                      0                       # What read queue length does an incoming req see
system.mem_ctrls.rdQLenPdf::16                      0                       # What read queue length does an incoming req see
system.mem_ctrls.rdQLenPdf::17                      0                       # What read queue length does an incoming req see
system.mem_ctrls.rdQLenPdf::18                      0                       # What read queue length does an incoming req see
system.mem_ctrls.rdQLenPdf::19                      0                       # What read queue length does an incoming req see
system.mem_ctrls.rdQLenPdf::20                      0                       # What read queue length does an incoming req see
system.mem_ctrls.rdQLenPdf::21                      0                       # What read queue length does an incoming req see
system.mem_ctrls.rdQLenPdf::22                      0                       # What read queue length does an incoming req see
system.mem_ctrls.rdQLenPdf::23                      0                       # What read queue length does an incoming req see
system.mem_ctrls.rdQLenPdf::24                      0                       # What read queue length does an incoming req see
system.mem_ctrls.rdQLenPdf::25                      0                       # What read queue length does an incoming req see
system.mem_ctrls.rdQLenPdf::26                      0                       # What read queue length does an incoming req see
system.mem_ctrls.rdQLenPdf::27                      0                       # What read queue length does an incoming req see
system.mem_ctrls.rdQLenPdf::28                      0                       # What read queue length does an incoming req see
system.mem_ctrls.rdQLenPdf::29                      0                       # What read queue length does an incoming req see
system.mem_ctrls.rdQLenPdf::30                      0                       # What read queue length does an incoming req see
system.mem_ctrls.rdQLenPdf::31                      0                       # What read queue length does an incoming req see
system.mem_ctrls.wrQLenPdf::0                       1                       # What write queue length does an incoming req see
system.mem_ctrls.wrQLenPdf::1                       1                       # What write queue length does an incoming req see
system.mem_ctrls.wrQLenPdf::2                       1                       # What write queue length does an incoming req see
system.mem_ctrls.wrQLenPdf::3                       1                       # What write queue length does an incoming req see
system.mem_ctrls.wrQLenPdf::4                       1                       # What write queue length does an incoming req see
system.mem_ctrls.wrQLenPdf::5                       1                       # What write queue length does an incoming req see
system.mem_ctrls.wrQLenPdf::6                       1                       # What write queue length does an incoming req see
system.mem_ctrls.wrQLenPdf::7                       1                       # What write queue length does an incoming req see
system.mem_ctrls.wrQLenPdf::8                       1                       # What write queue length does an incoming req see
system.mem_ctrls.wrQLenPdf::9                       1                       # What write queue length does an incoming req see
system.mem_ctrls.wrQLenPdf::10                      1                       # What write queue length does an incoming req see
system.mem_ctrls.wrQLenPdf::11                      1                       # What write queue length does an incoming req see
system.mem_ctrls.wrQLenPdf::12                      1                       # What write queue length does an incoming req see
system.mem_ctrls.wrQLenPdf::13                      1                       # What write queue length does an incoming req see
system.mem_ctrls.wrQLenPdf::14                      1                       # What write queue length does an incoming req see
system.mem_ctrls.wrQLenPdf::15                   1330                       # What write queue length does an incoming req see
system.mem_ctrls.wrQLenPdf::16                   1338                       # What write queue length does an incoming req see
system.mem_ctrls.wrQLenPdf::17                   1455                       # What write queue length does an incoming req see
system.mem_ctrls.wrQLenPdf::18                   1455                       # What write queue length does an incoming req see
system.mem_ctrls.wrQLenPdf::19                   1455                       # What write queue length does an incoming req see
system.mem_ctrls.wrQLenPdf::20                   1454                       # What write queue length does an incoming req see
system.mem_ctrls.wrQLenPdf::21                   1460                       # What write queue length does an incoming req see
system.mem_ctrls.wrQLenPdf::22                   1455                       # What write queue length does an incoming req see
system.mem_ctrls.wrQLenPdf::23                   1459                       # What write queue length does an incoming req see
system.mem_ctrls.wrQLenPdf::24                   1468                       # What write queue length does an incoming req see
system.mem_ctrls.wrQLenPdf::25                   1458                       # What write queue length does an incoming req see
system.mem_ctrls.wrQLenPdf::26                   1464                       # What write queue length does an incoming req see
system.mem_ctrls.wrQLenPdf::27                   1472                       # What write queue length does an incoming req see
system.mem_ctrls.wrQLenPdf::28                   1461                       # What write queue length does an incoming req see
system.mem_ctrls.wrQLenPdf::29                   1480                       # What write queue length does an incoming req see
system.mem_ctrls.wrQLenPdf::30                   1456                       # What write queue length does an incoming req see
system.mem_ctrls.wrQLenPdf::31                   1454                       # What write queue length does an incoming req see
system.mem_ctrls.wrQLenPdf::32                   1454                       # What write queue length does an incoming req see
system.mem_ctrls.wrQLenPdf::33                      1                       # What write queue length does an incoming req see
system.mem_ctrls.wrQLenPdf::34                      0                       # What write queue length does an incoming req see
system.mem_ctrls.wrQLenPdf::35                      0                       # What write queue length does an incoming req see
system.mem_ctrls.wrQLenPdf::36                      0                       # What write queue length does an incoming req see
system.mem_ctrls.wrQLenPdf::37                      0                       # What write queue length does an incoming req see
system.mem_ctrls.wrQLenPdf::38                      0                       # What write queue length does an incoming req see
system.mem_ctrls.wrQLenPdf::39                      0                       # What write queue length does an incoming req see
system.mem_ctrls.wrQLenPdf::40                      0                       # What write queue length does an incoming req see
system.mem_ctrls.wrQLenPdf::41                      0                       # What write queue length does an incoming req see
system.mem_ctrls.wrQLenPdf::42                      0                       # What write queue length does an incoming req see
system.mem_ctrls.wrQLenPdf::43                      0                       # What write queue length does an incoming req see
system.mem_ctrls.wrQLenPdf::44                      0                       # What write queue length does an incoming req see
system.mem_ctrls.wrQLenPdf::45                      0                       # What write queue length does an incoming req see
system.mem_ctrls.wrQLenPdf::46                      0                       # What write queue length does an incoming req see
system.mem_ctrls.wrQLenPdf::47                      0                       # What write queue length does an incoming req see
system.mem_ctrls.wrQLenPdf::48                      0                       # What write queue length does an incoming req see
system.mem_ctrls.wrQLenPdf::49                      0                       # What write queue length does an incoming req see
system.mem_ctrls.wrQLenPdf::50                      0                       # What write queue length does an incoming req see
system.mem_ctrls.wrQLenPdf::51                      0                       # What write queue length does an incoming req see
system.mem_ctrls.wrQLenPdf::52                      0                       # What write queue length does an incoming req see
system.mem_ctrls.wrQLenPdf::53                      0                       # What write queue length does an incoming req see
system.mem_ctrls.wrQLenPdf::54                      0                       # What write queue length does an incoming req see
system.mem_ctrls.wrQLenPdf::55                      0                       # What write queue length does an incoming req see
system.mem_ctrls.wrQLenPdf::56                      0                       # What write queue length does an incoming req see
system.mem_ctrls.wrQLenPdf::57                      0                       # What write queue length does an incoming req see
system.mem_ctrls.wrQLenPdf::58                      0                       # What write queue length does an incoming req see
system.mem_ctrls.wrQLenPdf::59                      0                       # What write queue length does an incoming req see
system.mem_ctrls.wrQLenPdf::60                      0                       # What write queue length does an incoming req see
system.mem_ctrls.wrQLenPdf::61                      0                       # What write queue length does an incoming req see
system.mem_ctrls.wrQLenPdf::62                      0                       # What write queue length does an incoming req see
system.mem_ctrls.wrQLenPdf::63                      0                       # What write queue length does an incoming req see
system.mem_ctrls.bytesPerActivate::samples        23348                       # Bytes accessed per row activation
system.mem_ctrls.bytesPerActivate::mean    189.149220                       # Bytes accessed per row activation
system.mem_ctrls.bytesPerActivate::gmean   138.663051                       # Bytes accessed per row activation
system.mem_ctrls.bytesPerActivate::stdev   182.065774                       # Bytes accessed per row activation
system.mem_ctrls.bytesPerActivate::0-127         8637     36.99%     36.99% # Bytes accessed per row activation
system.mem_ctrls.bytesPerActivate::128-255         9440     40.43%     77.42% # Bytes accessed per row activation
system.mem_ctrls.bytesPerActivate::256-383         2587     11.08%     88.50% # Bytes accessed per row activation
system.mem_ctrls.bytesPerActivate::384-511          872      3.73%     92.24% # Bytes accessed per row activation
system.mem_ctrls.bytesPerActivate::512-639          883      3.78%     96.02% # Bytes accessed per row activation
system.mem_ctrls.bytesPerActivate::640-767          233      1.00%     97.02% # Bytes accessed per row activation
system.mem_ctrls.bytesPerActivate::768-895          235      1.01%     98.03% # Bytes accessed per row activation
system.mem_ctrls.bytesPerActivate::896-1023          175      0.75%     98.78% # Bytes accessed per row activation
system.mem_ctrls.bytesPerActivate::1024-1151          286      1.22%    100.00% # Bytes accessed per row activation
system.mem_ctrls.bytesPerActivate::total        23348                       # Bytes accessed per row activation
system.mem_ctrls.rdPerTurnAround::samples         1454                       # Reads before turning the bus around for writes
system.mem_ctrls.rdPerTurnAround::mean      29.557772                       # Reads before turning the bus around for writes
system.mem_ctrls.rdPerTurnAround::gmean     18.530151                       # Reads before turning the bus around for writes
system.mem_ctrls.rdPerTurnAround::stdev    373.396948                       # Reads before turning the bus around for writes
system.mem_ctrls.rdPerTurnAround::0-511          1451     99.79%     99.79% # Reads before turning the bus around for writes
system.mem_ctrls.rdPerTurnAround::512-1023            1      0.07%     99.86% # Reads before turning the bus around for writes
[...]
system.cpu.icache.ReadReq_mshr_miss_latency::.cpu.inst   8061043000                       # number of ReadReq MSHR miss cycles
system.cpu.icache.ReadReq_mshr_miss_latency::total   8061043000                       # number of ReadReq MSHR miss cycles
system.cpu.icache.ReadReq_mshr_miss_rate::.cpu.inst     0.023530                       # mshr miss rate for ReadReq accesses
system.cpu.icache.ReadReq_mshr_miss_rate::total     0.023530                       # mshr miss rate for ReadReq accesses
system.cpu.icache.ReadReq_avg_mshr_miss_latency::.cpu.inst 12050.796655                       # average ReadReq mshr miss latency
system.cpu.icache.ReadReq_avg_mshr_miss_latency::total 12050.796655                       # average ReadReq mshr miss latency
system.cpu.icache.tags.pwrStateResidencyTicks::UNDEFINED  67505642500                       # Cumulative time (in ticks) in various power states
system.cpu.icache.tags.tagsinuse           397.683626                       # Cycle average of tags in use
system.cpu.icache.tags.total_refs            28428683                       # Total number of references to valid blocks.
system.cpu.icache.tags.sampled_refs            668921                       # Sample count of references to valid blocks.
system.cpu.icache.tags.avg_refs             42.499313                       # Average number of references to valid blocks.
system.cpu.icache.tags.warmup_cycle             87500                       # Cycle when the warmup percentage was hit.
system.cpu.icache.tags.occ_blocks::.cpu.inst   397.683626                       # Average occupied blocks per requestor
system.cpu.icache.tags.occ_percent::.cpu.inst     0.776726                       # Average percentage of cache occupancy
system.cpu.icache.tags.occ_percent::total     0.776726                       # Average percentage of cache occupancy
system.cpu.icache.tags.occ_task_id_blocks::1024          398                       # Occupied blocks per task id
system.cpu.icache.tags.age_task_id_blocks_1024::0           10                       # Occupied blocks per task id
system.cpu.icache.tags.age_task_id_blocks_1024::2            4                       # Occupied blocks per task id
system.cpu.icache.tags.age_task_id_blocks_1024::3            2                       # Occupied blocks per task id
system.cpu.icache.tags.age_task_id_blocks_1024::4          382                       # Occupied blocks per task id
system.cpu.icache.tags.occ_task_id_percent::1024     0.777344                       # Percentage of cache occupancy per task id
system.cpu.icache.tags.tag_accesses          57526289                       # Number of tag accesses
system.cpu.icache.tags.data_accesses         57526289                       # Number of data accesses
system.cpu.dtb.walker.pwrStateResidencyTicks::UNDEFINED  67505642500                       # Cumulative time (in ticks) in various power states
system.cpu.dtb.stage2_mmu.stage2_tlb.walker.pwrStateResidencyTicks::UNDEFINED  67505642500                       # Cumulative time (in ticks) in various power states
system.cpu.dcache.pwrStateResidencyTicks::UNDEFINED  67505642500                       # Cumulative time (in ticks) in various power states
system.cpu.dcache.demand_hits::.cpu.data     35435640                       # number of demand (read+write) hits
system.cpu.dcache.demand_hits::total         35435640                       # number of demand (read+write) hits
system.cpu.dcache.overall_hits::.cpu.data     35438881                       # number of overall hits
system.cpu.dcache.overall_hits::total        35438881                       # number of overall hits
system.cpu.dcache.demand_misses::.cpu.data       297667                       # number of demand (read+write) misses
system.cpu.dcache.demand_misses::total         297667                       # number of demand (read+write) misses
system.cpu.dcache.overall_misses::.cpu.data       297787                       # number of overall misses
system.cpu.dcache.overall_misses::total        297787                       # number of overall misses
system.cpu.dcache.demand_miss_latency::.cpu.data   7801717500                       # number of demand (read+write) miss cycles
system.cpu.dcache.demand_miss_latency::total   7801717500                       # number of demand (read+write) miss cycles
system.cpu.dcache.overall_miss_latency::.cpu.data   7801717500                       # number of overall miss cycles
system.cpu.dcache.overall_miss_latency::total   7801717500                       # number of overall miss cycles
system.cpu.dcache.demand_accesses::.cpu.data     35733307                       # number of demand (read+write) accesses
system.cpu.dcache.demand_accesses::total     35733307                       # number of demand (read+write) accesses
system.cpu.dcache.overall_accesses::.cpu.data     35736668                       # number of overall (read+write) accesses
system.cpu.dcache.overall_accesses::total     35736668                       # number of overall (read+write) accesses
system.cpu.dcache.demand_miss_rate::.cpu.data     0.008330                       # miss rate for demand accesses
system.cpu.dcache.demand_miss_rate::total     0.008330                       # miss rate for demand accesses
system.cpu.dcache.overall_miss_rate::.cpu.data     0.008333                       # miss rate for overall accesses
system.cpu.dcache.overall_miss_rate::total     0.008333                       # miss rate for overall accesses
system.cpu.dcache.demand_avg_miss_latency::.cpu.data 26209.547918                       # average overall miss latency
system.cpu.dcache.demand_avg_miss_latency::total 26209.547918                       # average overall miss latency
system.cpu.dcache.overall_avg_miss_latency::.cpu.data 26198.986188                       # average overall miss latency
system.cpu.dcache.overall_avg_miss_latency::total 26198.986188                       # average overall miss latency
system.cpu.dcache.blocked_cycles::no_mshrs            0                       # number of cycles access was blocked
system.cpu.dcache.blocked_cycles::no_targets            0                       # number of cycles access was blocked
system.cpu.dcache.blocked::no_mshrs                 0                       # number of cycles access was blocked
system.cpu.dcache.blocked::no_targets               0                       # number of cycles access was blocked
system.cpu.dcache.avg_blocked_cycles::no_mshrs          nan                       # average number of cycles each access was blocked
system.cpu.dcache.avg_blocked_cycles::no_targets          nan                       # average number of cycles each access was blocked
system.cpu.dcache.writebacks::.writebacks        70457                       # number of writebacks
system.cpu.dcache.writebacks::total             70457                       # number of writebacks
system.cpu.dcache.demand_mshr_hits::.cpu.data        31646                       # number of demand (read+write) MSHR hits
system.cpu.dcache.demand_mshr_hits::total        31646                       # number of demand (read+write) MSHR hits
system.cpu.dcache.overall_mshr_hits::.cpu.data        31646                       # number of overall MSHR hits
system.cpu.dcache.overall_mshr_hits::total        31646                       # number of overall MSHR hits
system.cpu.dcache.demand_mshr_misses::.cpu.data       266021                       # number of demand (read+write) MSHR misses
system.cpu.dcache.demand_mshr_misses::total       266021                       # number of demand (read+write) MSHR misses
system.cpu.dcache.overall_mshr_misses::.cpu.data       266135                       # number of overall MSHR misses
system.cpu.dcache.overall_mshr_misses::total       266135                       # number of overall MSHR misses
system.cpu.dcache.demand_mshr_miss_latency::.cpu.data   6223548500                       # number of demand (read+write) MSHR miss cycles
system.cpu.dcache.demand_mshr_miss_latency::total   6223548500                       # number of demand (read+write) MSHR miss cycles
system.cpu.dcache.overall_mshr_miss_latency::.cpu.data   6225931500                       # number of overall MSHR miss cycles
system.cpu.dcache.overall_mshr_miss_latency::total   6225931500                       # number of overall MSHR miss cycles
system.cpu.dcache.demand_mshr_miss_rate::.cpu.data     0.007445                       # mshr miss rate for demand accesses
system.cpu.dcache.demand_mshr_miss_rate::total     0.007445                       # mshr miss rate for demand accesses
system.cpu.dcache.overall_mshr_miss_rate::.cpu.data     0.007447                       # mshr miss rate for overall accesses
system.cpu.dcache.overall_mshr_miss_rate::total     0.007447                       # mshr miss rate for overall accesses
system.cpu.dcache.demand_avg_mshr_miss_latency::.cpu.data 23394.951902                       # average overall mshr miss latency
system.cpu.dcache.demand_avg_mshr_miss_latency::total 23394.951902                       # average overall mshr miss latency
system.cpu.dcache.overall_avg_mshr_miss_latency::.cpu.data 23393.884683                       # average overall mshr miss latency
system.cpu.dcache.overall_avg_mshr_miss_latency::total 23393.884683                       # average overall mshr miss latency
system.cpu.dcache.replacements                 265879                       # number of replacements
system.cpu.dcache.ReadReq_hits::.cpu.data     21246591                       # number of ReadReq hits
system.cpu.dcache.ReadReq_hits::total        21246591                       # number of ReadReq hits
system.cpu.dcache.ReadReq_misses::.cpu.data       231965                       # number of ReadReq misses
system.cpu.dcache.ReadReq_misses::total        231965                       # number of ReadReq misses
system.cpu.dcache.ReadReq_miss_latency::.cpu.data   3327704500                       # number of ReadReq miss cycles
system.cpu.dcache.ReadReq_miss_latency::total   3327704500                       # number of ReadReq miss cycles
system.cpu.dcache.ReadReq_accesses::.cpu.data     21478556                       # number of ReadReq accesses(hits+misses)
system.cpu.dcache.ReadReq_accesses::total     21478556                       # number of ReadReq accesses(hits+misses)
system.cpu.dcache.ReadReq_miss_rate::.cpu.data     0.010800                       # miss rate for ReadReq accesses
system.cpu.dcache.ReadReq_miss_rate::total     0.010800                       # miss rate for ReadReq accesses
system.cpu.dcache.ReadReq_avg_miss_latency::.cpu.data 14345.718104                       # average ReadReq miss latency
system.cpu.dcache.ReadReq_avg_miss_latency::total 14345.718104                       # average ReadReq miss latency
system.cpu.dcache.ReadReq_mshr_hits::.cpu.data        10911                       # number of ReadReq MSHR hits
system.cpu.dcache.ReadReq_mshr_hits::total        10911                       # number of ReadReq MSHR hits
system.cpu.dcache.ReadReq_mshr_misses::.cpu.data       221054                       # number of ReadReq MSHR misses
system.cpu.dcache.ReadReq_mshr_misses::total       221054                       # number of ReadReq MSHR misses
system.cpu.dcache.ReadReq_mshr_miss_latency::.cpu.data   2948716000                       # number of ReadReq MSHR miss cycles
system.cpu.dcache.ReadReq_mshr_miss_latency::total   2948716000                       # number of ReadReq MSHR miss cycles
system.cpu.dcache.ReadReq_mshr_miss_rate::.cpu.data     0.010292                       # mshr miss rate for ReadReq accesses
system.cpu.dcache.ReadReq_mshr_miss_rate::total     0.010292                       # mshr miss rate for ReadReq accesses
system.cpu.dcache.ReadReq_avg_mshr_miss_latency::.cpu.data 13339.346947                       # average ReadReq mshr miss latency
system.cpu.dcache.ReadReq_avg_mshr_miss_latency::total 13339.346947                       # average ReadReq mshr miss latency
system.cpu.dcache.WriteReq_hits::.cpu.data     14189049                       # number of WriteReq hits
system.cpu.dcache.WriteReq_hits::total       14189049                       # number of WriteReq hits
system.cpu.dcache.WriteReq_misses::.cpu.data        65702                       # number of WriteReq misses
system.cpu.dcache.WriteReq_misses::total        65702                       # number of WriteReq misses
system.cpu.dcache.WriteReq_miss_latency::.cpu.data   4474013000                       # number of WriteReq miss cycles
system.cpu.dcache.WriteReq_miss_latency::total   4474013000                       # number of WriteReq miss cycles
system.cpu.dcache.WriteReq_accesses::.cpu.data     14254751                       # number of WriteReq accesses(hits+misses)
system.cpu.dcache.WriteReq_accesses::total     14254751                       # number of WriteReq accesses(hits+misses)
system.cpu.dcache.WriteReq_miss_rate::.cpu.data     0.004609                       # miss rate for WriteReq accesses
system.cpu.dcache.WriteReq_miss_rate::total     0.004609                       # miss rate for WriteReq accesses
system.cpu.dcache.WriteReq_avg_miss_latency::.cpu.data 68095.537427                       # average WriteReq miss latency
system.cpu.dcache.WriteReq_avg_miss_latency::total 68095.537427                       # average WriteReq miss latency
system.cpu.dcache.WriteReq_mshr_hits::.cpu.data        20735                       # number of WriteReq MSHR hits
system.cpu.dcache.WriteReq_mshr_hits::total        20735                       # number of WriteReq MSHR hits
system.cpu.dcache.WriteReq_mshr_misses::.cpu.data        44967                       # number of WriteReq MSHR misses
system.cpu.dcache.WriteReq_mshr_misses::total        44967                       # number of WriteReq MSHR misses
system.cpu.dcache.WriteReq_mshr_miss_latency::.cpu.data   3274832500                       # number of WriteReq MSHR miss cycles
system.cpu.dcache.WriteReq_mshr_miss_latency::total   3274832500                       # number of WriteReq MSHR miss cycles
system.cpu.dcache.WriteReq_mshr_miss_rate::.cpu.data     0.003155                       # mshr miss rate for WriteReq accesses
system.cpu.dcache.WriteReq_mshr_miss_rate::total     0.003155                       # mshr miss rate for WriteReq accesses
system.cpu.dcache.WriteReq_avg_mshr_miss_latency::.cpu.data 72827.462361                       # average WriteReq mshr miss latency
system.cpu.dcache.WriteReq_avg_mshr_miss_latency::total 72827.462361                       # average WriteReq mshr miss latency
system.cpu.dcache.SoftPFReq_hits::.cpu.data         3241                       # number of SoftPFReq hits
system.cpu.dcache.SoftPFReq_hits::total          3241                       # number of SoftPFReq hits
system.cpu.dcache.SoftPFReq_misses::.cpu.data          120                       # number of SoftPFReq misses
system.cpu.dcache.SoftPFReq_misses::total          120                       # number of SoftPFReq misses
system.cpu.dcache.SoftPFReq_accesses::.cpu.data         3361                       # number of SoftPFReq accesses(hits+misses)
system.cpu.dcache.SoftPFReq_accesses::total         3361                       # number of SoftPFReq accesses(hits+misses)
system.cpu.dcache.SoftPFReq_miss_rate::.cpu.data     0.035704                       # miss rate for SoftPFReq accesses
system.cpu.dcache.SoftPFReq_miss_rate::total     0.035704                       # miss rate for SoftPFReq accesses
system.cpu.dcache.SoftPFReq_mshr_misses::.cpu.data          114                       # number of SoftPFReq MSHR misses
system.cpu.dcache.SoftPFReq_mshr_misses::total          114                       # number of SoftPFReq MSHR misses
system.cpu.dcache.SoftPFReq_mshr_miss_latency::.cpu.data      2383000                       # number of SoftPFReq MSHR miss cycles
system.cpu.dcache.SoftPFReq_mshr_miss_latency::total      2383000                       # number of SoftPFReq MSHR miss cycles
system.cpu.dcache.SoftPFReq_mshr_miss_rate::.cpu.data     0.033918                       # mshr miss rate for SoftPFReq accesses
system.cpu.dcache.SoftPFReq_mshr_miss_rate::total     0.033918                       # mshr miss rate for SoftPFReq accesses
system.cpu.dcache.SoftPFReq_avg_mshr_miss_latency::.cpu.data 20903.508772                       # average SoftPFReq mshr miss latency
system.cpu.dcache.SoftPFReq_avg_mshr_miss_latency::total 20903.508772                       # average SoftPFReq mshr miss latency
system.cpu.dcache.LoadLockedReq_hits::.cpu.data        89082                       # number of LoadLockedReq hits
system.cpu.dcache.LoadLockedReq_hits::total        89082                       # number of LoadLockedReq hits
system.cpu.dcache.LoadLockedReq_accesses::.cpu.data        89082                       # number of LoadLockedReq accesses(hits+misses)
system.cpu.dcache.LoadLockedReq_accesses::total        89082                       # number of LoadLockedReq accesses(hits+misses)
system.cpu.dcache.StoreCondReq_hits::.cpu.data        89082                       # number of StoreCondReq hits
system.cpu.dcache.StoreCondReq_hits::total        89082                       # number of StoreCondReq hits
system.cpu.dcache.StoreCondReq_accesses::.cpu.data        89082                       # number of StoreCondReq accesses(hits+misses)
system.cpu.dcache.StoreCondReq_accesses::total        89082                       # number of StoreCondReq accesses(hits+misses)
system.cpu.dcache.tags.pwrStateResidencyTicks::UNDEFINED  67505642500                       # Cumulative time (in ticks) in various power states
system.cpu.dcache.tags.tagsinuse           255.807117                       # Cycle average of tags in use
system.cpu.dcache.tags.total_refs            35883180                       # Total number of references to valid blocks.
system.cpu.dcache.tags.sampled_refs            266135                       # Sample count of references to valid blocks.
system.cpu.dcache.tags.avg_refs            134.830744                       # Average number of references to valid blocks.
system.cpu.dcache.tags.warmup_cycle            195500                       # Cycle when the warmup percentage was hit.
system.cpu.dcache.tags.occ_blocks::.cpu.data   255.807117                       # Average occupied blocks per requestor
system.cpu.dcache.tags.occ_percent::.cpu.data     0.999247                       # Average percentage of cache occupancy
system.cpu.dcache.tags.occ_percent::total     0.999247                       # Average percentage of cache occupancy
system.cpu.dcache.tags.occ_task_id_blocks::1024          256                       # Occupied blocks per task id
system.cpu.dcache.tags.age_task_id_blocks_1024::0            8                       # Occupied blocks per task id
system.cpu.dcache.tags.age_task_id_blocks_1024::1           73                       # Occupied blocks per task id
system.cpu.dcache.tags.age_task_id_blocks_1024::2          150                       # Occupied blocks per task id
system.cpu.dcache.tags.age_task_id_blocks_1024::3           19                       # Occupied blocks per task id
system.cpu.dcache.tags.age_task_id_blocks_1024::4            6                       # Occupied blocks per task id
system.cpu.dcache.tags.occ_task_id_percent::1024            1                       # Percentage of cache occupancy per task id
system.cpu.dcache.tags.tag_accesses          72095799                       # Number of tag accesses
system.cpu.dcache.tags.data_accesses         72095799                       # Number of data accesses
system.cpu.itb.walker.pwrStateResidencyTicks::UNDEFINED  67505642500                       # Cumulative time (in ticks) in various power states
system.cpu.itb.stage2_mmu.stage2_tlb.walker.pwrStateResidencyTicks::UNDEFINED  67505642500                       # Cumulative time (in ticks) in various power states

---------- End Simulation Statistics   ----------
