
---------- Begin Simulation Statistics ----------
final_tick                                79988056500                       # Number of ticks from beginning of simulation (restored from checkpoints and never reset)
host_inst_rate                                 378057                       # Simulator instruction rate (inst/s)
host_mem_usage                                 693692                       # Number of bytes of host memory used
host_op_rate                                   378800                       # Simulator op (including micro ops) rate (op/s)
host_seconds                                   264.51                       # Real time elapsed on the host
host_tick_rate                              302400574                       # Simulator tick rate (ticks/s)
sim_freq                                 1000000000000                       # Frequency of simulated ticks
sim_insts                                   100000001                       # Number of instructions simulated
sim_ops                                     100196363                       # Number of ops (including micro ops) simulated
sim_seconds                                  0.079988                       # Number of seconds simulated
sim_ticks                                 79988056500                       # Number of ticks simulated
system.cpu.branchPred.BTBCorrect                    0                       # Number of correct BTB predictions (this stat may not work properly.
system.cpu.branchPred.BTBHitPct             99.616951                       # BTB Hit Percentage
system.cpu.branchPred.BTBHits                 2095590                       # Number of BTB hits
system.cpu.branchPred.BTBLookups              2103648                       # Number of BTB lookups
system.cpu.branchPred.RASInCorrect                  5                       # Number of incorrect RAS predictions.
system.cpu.branchPred.condIncorrect             81389                       # Number of conditional branches incorrect
system.cpu.branchPred.condPredicted           3728196                       # Number of conditional branches predicted
system.cpu.branchPred.indirectHits                292                       # Number of indirect target hits.
system.cpu.branchPred.indirectLookups             998                       # Number of indirect predictor lookups.
system.cpu.branchPred.indirectMisses              706                       # Number of indirect misses.
system.cpu.branchPred.lookups                 4478294                       # Number of BP lookups
system.cpu.branchPred.usedRAS                   65354                       # Number of times the RAS was used to get a target.
system.cpu.branchPredindirectMispredicted          168                       # Number of mispredicted indirect branches.
system.cpu.committedInsts                   100000001                       # Number of instructions committed
system.cpu.committedOps                     100196363                       # Number of ops (including micro ops) committed
system.cpu.cpi                               1.599761                       # CPI: cycles per instruction
system.cpu.discardedOps                        190740                       # Number of ops (including micro ops) which were discarded before commit
system.cpu.dtb.accesses                             0                       # DTB accesses
system.cpu.dtb.align_faults                         0                       # Number of TLB faults due to alignment restrictions
system.cpu.dtb.domain_faults                        0                       # Number of TLB faults due to domain restrictions
system.cpu.dtb.flush_entries                        0                       # Number of entries that have been flushed from TLB
system.cpu.dtb.flush_tlb                            0                       # Number of times complete TLB was flushed
system.cpu.dtb.flush_tlb_asid                       0                       # Number of times TLB was flushed by ASID
system.cpu.dtb.flush_tlb_mva                        0                       # Number of times TLB was flushed by MVA
system.cpu.dtb.flush_tlb_mva_asid                   0                       # Number of times TLB was flushed by MVA & ASID
system.cpu.dtb.hits                                 0                       # DTB hits
system.cpu.dtb.inst_accesses                        0                       # ITB inst accesses
system.cpu.dtb.inst_hits                            0                       # ITB inst hits
system.cpu.dtb.inst_misses                          0                       # ITB inst misses
system.cpu.dtb.misses                               0                       # DTB misses
system.cpu.dtb.perms_faults                         0                       # Number of TLB faults due to permissions restrictions
system.cpu.dtb.prefetch_faults                      0                       # Number of TLB faults due to prefetch
system.cpu.dtb.read_accesses                        0                       # DTB read accesses
system.cpu.dtb.read_hits                            0                       # DTB read hits
system.cpu.dtb.read_misses                          0                       # DTB read misses
system.cpu.dtb.stage2_mmu.stage2_tlb.accesses            0                       # DTB accesses
system.cpu.dtb.stage2_mmu.stage2_tlb.align_faults            0                       # Number of TLB faults due to alignment restrictions
system.cpu.dtb.stage2_mmu.stage2_tlb.domain_faults            0                       # Number of TLB faults due to domain restrictions
system.cpu.dtb.stage2_mmu.stage2_tlb.flush_entries            0                       # Number of entries that have been flushed from TLB
system.cpu.dtb.stage2_mmu.stage2_tlb.flush_tlb            0                       # Number of times complete TLB was flushed
system.cpu.dtb.stage2_mmu.stage2_tlb.flush_tlb_asid            0                       # Number of times TLB was flushed by ASID
system.cpu.dtb.stage2_mmu.stage2_tlb.flush_tlb_mva            0                       # Number of times TLB was flushed by MVA
system.cpu.dtb.stage2_mmu.stage2_tlb.flush_tlb_mva_asid            0                       # Number of times TLB was flushed by MVA & ASID
system.cpu.dtb.stage2_mmu.stage2_tlb.hits            0                       # DTB hits
system.cpu.dtb.stage2_mmu.stage2_tlb.inst_accesses            0                       # ITB inst accesses
system.cpu.dtb.stage2_mmu.stage2_tlb.inst_hits            0                       # ITB inst hits
system.cpu.dtb.stage2_mmu.stage2_tlb.inst_misses            0                       # ITB inst misses
system.cpu.dtb.stage2_mmu.stage2_tlb.misses            0                       # DTB misses
system.cpu.dtb.stage2_mmu.stage2_tlb.perms_faults            0                       # Number of TLB faults due to permissions restrictions
system.cpu.dtb.stage2_mmu.stage2_tlb.prefetch_faults            0                       # Number of TLB faults due to prefetch
system.cpu.dtb.stage2_mmu.stage2_tlb.read_accesses            0                       # DTB read accesses
system.cpu.dtb.stage2_mmu.stage2_tlb.read_hits            0                       # DTB read hits
system.cpu.dtb.stage2_mmu.stage2_tlb.read_misses            0                       # DTB read misses
system.cpu.dtb.stage2_mmu.stage2_tlb.walker.walkRequestOrigin_Requested::Data            0                       # Table walker requests started/completed, data/inst
system.cpu.dtb.stage2_mmu.stage2_tlb.walker.walkRequestOrigin_Requested::Inst            0                       # Table walker requests started/completed, data/inst
system.cpu.dtb.stage2_mmu.stage2_tlb.walker.walkRequestOrigin_Requested::total            0                       # Table walker requests started/completed, data/inst
system.cpu.dtb.stage2_mmu.stage2_tlb.walker.walkRequestOrigin_Completed::Data            0                       # Table walker requests started/completed, data/inst
system.cpu.dtb.stage2_mmu.stage2_tlb.walker.walkRequestOrigin_Completed::Inst            0                       # Table walker requests started/completed, data/inst
system.cpu.dtb.stage2_mmu.stage2_tlb.walker.walkRequestOrigin_Completed::total            0                       # Table walker requests started/completed, data/inst
system.cpu.dtb.stage2_mmu.stage2_tlb.walker.walkRequestOrigin::total            0                       # Table walker requests started/completed, data/inst
system.cpu.dtb.stage2_mmu.stage2_tlb.walker.walks            0                       # Table walker walks requested
system.cpu.dtb.stage2_mmu.stage2_tlb.write_accesses            0                       # DTB write accesses
system.cpu.dtb.stage2_mmu.stage2_tlb.write_hits            0                       # DTB write hits
system.cpu.dtb.stage2_mmu.stage2_tlb.write_misses            0                       # DTB write misses
system.cpu.dtb.walker.walkRequestOrigin_Requested::Data            0                       # Table walker requests started/completed, data/inst
system.cpu.dtb.walker.walkRequestOrigin_Requested::Inst            0                       # Table walker requests started/completed, data/inst
system.cpu.dtb.walker.walkRequestOrigin_Requested::total            0                       # Table walker requests started/completed, data/inst
system.cpu.dtb.walker.walkRequestOrigin_Completed::Data            0                       # Table walker requests started/completed, data/inst
system.cpu.dtb.walker.walkRequestOrigin_Completed::Inst            0                       # Table walker requests started/completed, data/inst
system.cpu.dtb.walker.walkRequestOrigin_Completed::total            0                       # Table walker requests started/completed, data/inst
system.cpu.dtb.walker.walkRequestOrigin::total            0                       # Table walker requests started/completed, data/inst
system.cpu.dtb.walker.walks                         0                       # Table walker walks requested
system.cpu.dtb.write_accesses                       0                       # DTB write accesses
system.cpu.dtb.write_hits                           0                       # DTB write hits
system.cpu.dtb.write_misses                         0                       # DTB write misses
system.cpu.fetch2.amo_instructions                  0                       # Number of memory atomic instructions successfully decoded
system.cpu.fetch2.fp_instructions                   0                       # Number of floating point instructions successfully decoded
system.cpu.fetch2.int_instructions           42610457                       # Number of integer instructions successfully decoded
system.cpu.fetch2.load_instructions          43403211                       # Number of memory load instructions successfully decoded
system.cpu.fetch2.store_instructions         11001561                       # Number of memory store instructions successfully decoded
system.cpu.fetch2.vec_instructions                  0                       # Number of SIMD instructions successfully decoded
system.cpu.idleCycles                        27793029                       # Total number of cycles that the object has spent stopped
system.cpu.ipc                               0.625093                       # IPC: instructions per cycle
system.cpu.itb.accesses                             0                       # DTB accesses
system.cpu.itb.align_faults                         0                       # Number of TLB faults due to alignment restrictions
system.cpu.itb.domain_faults                        0                       # Number of TLB faults due to domain restrictions
system.cpu.itb.flush_entries                        0                       # Number of entries that have been flushed from TLB
system.cpu.itb.flush_tlb                            0                       # Number of times complete TLB was flushed
system.cpu.itb.flush_tlb_asid                       0                       # Number of times TLB was flushed by ASID
system.cpu.itb.flush_tlb_mva                        0                       # Number of times TLB was flushed by MVA
system.cpu.itb.flush_tlb_mva_asid                   0                       # Number of times TLB was flushed by MVA & ASID
system.cpu.itb.hits                                 0                       # DTB hits
system.cpu.itb.inst_accesses                        0                       # ITB inst accesses
system.cpu.itb.inst_hits                            0                       # ITB inst hits
system.cpu.itb.inst_misses                          0                       # ITB inst misses
system.cpu.itb.misses                               0                       # DTB misses
system.cpu.itb.perms_faults                         0                       # Number of TLB faults due to permissions restrictions
system.cpu.itb.prefetch_faults                      0                       # Number of TLB faults due to prefetch
system.cpu.itb.read_accesses                        0                       # DTB read accesses
system.cpu.itb.read_hits                            0                       # DTB read hits
system.cpu.itb.read_misses                          0                       # DTB read misses
system.cpu.itb.stage2_mmu.stage2_tlb.accesses            0                       # DTB accesses
system.cpu.itb.stage2_mmu.stage2_tlb.align_faults            0                       # Number of TLB faults due to alignment restrictions
system.cpu.itb.stage2_mmu.stage2_tlb.domain_faults            0                       # Number of TLB faults due to domain restrictions
system.cpu.itb.stage2_mmu.stage2_tlb.flush_entries            0                       # Number of entries that have been flushed from TLB
system.cpu.itb.stage2_mmu.stage2_tlb.flush_tlb            0                       # Number of times complete TLB was flushed
system.cpu.itb.stage2_mmu.stage2_tlb.flush_tlb_asid            0                       # Number of times TLB was flushed by ASID
system.cpu.itb.stage2_mmu.stage2_tlb.flush_tlb_mva            0                       # Number of times TLB was flushed by MVA
system.cpu.itb.stage2_mmu.stage2_tlb.flush_tlb_mva_asid            0                       # Number of times TLB was flushed by MVA & ASID
system.cpu.itb.stage2_mmu.stage2_tlb.hits            0                       # DTB hits
system.cpu.itb.stage2_mmu.stage2_tlb.inst_accesses            0                       # ITB inst accesses
system.cpu.itb.stage2_mmu.stage2_tlb.inst_hits            0                       # ITB inst hits
system.cpu.itb.stage2_mmu.stage2_tlb.inst_misses            0                       # ITB inst misses
system.cpu.itb.stage2_mmu.stage2_tlb.misses            0                       # DTB misses
system.cpu.itb.stage2_mmu.stage2_tlb.perms_faults            0                       # Number of TLB faults due to permissions restrictions
system.cpu.itb.stage2_mmu.stage2_tlb.prefetch_faults            0                       # Number of TLB faults due to prefetch
system.cpu.itb.stage2_mmu.stage2_tlb.read_accesses            0                       # DTB read accesses
system.cpu.itb.stage2_mmu.stage2_tlb.read_hits            0                       # DTB read hits
system.cpu.itb.stage2_mmu.stage2_tlb.read_misses            0                       # DTB read misses
system.cpu.itb.stage2_mmu.stage2_tlb.walker.walkRequestOrigin_Requested::Data            0                       # Table walker requests started/completed, data/inst
system.cpu.itb.stage2_mmu.stage2_tlb.walker.walkRequestOrigin_Requested::Inst            0                       # Table walker requests started/completed, data/inst
system.cpu.itb.stage2_mmu.stage2_tlb.walker.walkRequestOrigin_Requested::total            0                       # Table walker requests started/completed, data/inst
system.cpu.itb.stage2_mmu.stage2_tlb.walker.walkRequestOrigin_Completed::Data            0                       # Table walker requests started/completed, data/inst
system.cpu.itb.stage2_mmu.stage2_tlb.walker.walkRequestOrigin_Completed::Inst            0                       # Table walker requests started/completed, data/inst
system.cpu.itb.stage2_mmu.stage2_tlb.walker.walkRequestOrigin_Completed::total            0                       # Table walker requests started/completed, data/inst
system.cpu.itb.stage2_mmu.stage2_tlb.walker.walkRequestOrigin::total            0                       # Table walker requests started/completed, data/inst
system.cpu.itb.stage2_mmu.stage2_tlb.walker.walks            0                       # Table walker walks requested
system.cpu.itb.stage2_mmu.stage2_tlb.write_accesses            0                       # DTB write accesses
system.cpu.itb.stage2_mmu.stage2_tlb.write_hits            0                       # DTB write hits
system.cpu.itb.stage2_mmu.stage2_tlb.write_misses            0                       # DTB write misses
system.cpu.itb.walker.walkRequestOrigin_Requested::Data            0                       # Table walker requests started/completed, data/inst
system.cpu.itb.walker.walkRequestOrigin_Requested::Inst            0                       # Table walker requests started/completed, data/inst
system.cpu.itb.walker.walkRequestOrigin_Requested::total            0                       # Table walker requests started/completed, data/inst
system.cpu.itb.walker.walkRequestOrigin_Completed::Data            0                       # Table walker requests started/completed, data/inst
system.cpu.itb.walker.walkRequestOrigin_Completed::Inst            0                       # Table walker requests started/completed, data/inst
system.cpu.itb.walker.walkRequestOrigin_Completed::total            0                       # Table walker requests started/completed, data/inst
system.cpu.itb.walker.walkRequestOrigin::total            0                       # Table walker requests started/completed, data/inst
system.cpu.itb.walker.walks                         0                       # Table walker walks requested
system.cpu.itb.write_accesses                       0                       # DTB write accesses
system.cpu.itb.write_hits                           0                       # DTB write hits
system.cpu.itb.write_misses                         0                       # DTB write misses
system.cpu.numCycles                        159976113                       # number of cpu cycles simulated
system.cpu.numFetchSuspends                         0                       # Number of times Execute suspended instruction fetching
system.cpu.numWorkItemsCompleted                    0                       # number of work items this cpu completed
system.cpu.numWorkItemsStarted                      0                       # number of work items this cpu started
system.cpu.op_class_0::No_OpClass                   0      0.00%      0.00% # Class of committed instruction
system.cpu.op_class_0::IntAlu                46531400     46.44%     46.44% # Class of committed instruction
system.cpu.op_class_0::IntMult                  20720      0.02%     46.46% # Class of committed instruction
system.cpu.op_class_0::IntDiv                       0      0.00%     46.46% # Class of committed instruction
system.cpu.op_class_0::FloatAdd                     0      0.00%     46.46% # Class of committed instruction
system.cpu.op_class_0::FloatCmp                     0      0.00%     46.46% # Class of committed instruction
system.cpu.op_class_0::FloatCvt                     0      0.00%     46.46% # Class of committed instruction
system.cpu.op_class_0::FloatMult                    0      0.00%     46.46% # Class of committed instruction
system.cpu.op_class_0::FloatMultAcc                 0      0.00%     46.46% # Class of committed instruction
system.cpu.op_class_0::FloatDiv                     0      0.00%     46.46% # Class of committed instruction
system.cpu.op_class_0::FloatMisc                    0      0.00%     46.46% # Class of committed instruction
system.cpu.op_class_0::FloatSqrt                    0      0.00%     46.46% # Class of committed instruction
system.cpu.op_class_0::SimdAdd                      0      0.00%     46.46% # Class of committed instruction
system.cpu.op_class_0::SimdAddAcc                   0      0.00%     46.46% # Class of committed instruction
system.cpu.op_class_0::SimdAlu                      0      0.00%     46.46% # Class of committed instruction
system.cpu.op_class_0::SimdCmp                      0      0.00%     46.46% # Class of committed instruction
system.cpu.op_class_0::SimdCvt                      0      0.00%     46.46% # Class of committed instruction
system.cpu.op_class_0::SimdMisc                     0      0.00%     46.46% # Class of committed instruction
system.cpu.op_class_0::SimdMult                     0      0.00%     46.46% # Class of committed instruction
system.cpu.op_class_0::SimdMultAcc                  0      0.00%     46.46% # Class of committed instruction
system.cpu.op_class_0::SimdShift                    0      0.00%     46.46% # Class of committed instruction
system.cpu.op_class_0::SimdShiftAcc                 0      0.00%     46.46% # Class of committed instruction
system.cpu.op_class_0::SimdDiv                      0      0.00%     46.46% # Class of committed instruction
system.cpu.op_class_0::SimdSqrt                     0      0.00%     46.46% # Class of committed instruction
system.cpu.op_class_0::SimdFloatAdd                 0      0.00%     46.46% # Class of committed instruction
system.cpu.op_class_0::SimdFloatAlu                 0      0.00%     46.46% # Class of committed instruction
system.cpu.op_class_0::SimdFloatCmp                 0      0.00%     46.46% # Class of committed instruction
system.cpu.op_class_0::SimdFloatCvt                 0      0.00%     46.46% # Class of committed instruction
system.cpu.op_class_0::SimdFloatDiv                 0      0.00%     46.46% # Class of committed instruction
system.cpu.op_class_0::SimdFloatMisc               18      0.00%     46.46% # Class of committed instruction
system.cpu.op_class_0::SimdFloatMult                0      0.00%     46.46% # Class of committed instruction
system.cpu.op_class_0::SimdFloatMultAcc             0      0.00%     46.46% # Class of committed instruction
system.cpu.op_class_0::SimdFloatSqrt                0      0.00%     46.46% # Class of committed instruction
system.cpu.op_class_0::SimdReduceAdd                0      0.00%     46.46% # Class of committed instruction
system.cpu.op_class_0::SimdReduceAlu                0      0.00%     46.46% # Class of committed instruction
system.cpu.op_class_0::SimdReduceCmp                0      0.00%     46.46% # Class of committed instruction
system.cpu.op_class_0::SimdFloatReduceAdd            0      0.00%     46.46% # Class of committed instruction
system.cpu.op_class_0::SimdFloatReduceCmp            0      0.00%     46.46% # Class of committed instruction
system.cpu.op_class_0::SimdAes                      0      0.00%     46.46% # Class of committed instruction
system.cpu.op_class_0::SimdAesMix                   0      0.00%     46.46% # Class of committed instruction
system.cpu.op_class_0::SimdSha1Hash                 0      0.00%     46.46% # Class of committed instruction
system.cpu.op_class_0::SimdSha1Hash2                0      0.00%     46.46% # Class of committed instruction
system.cpu.op_class_0::SimdSha256Hash               0      0.00%     46.46% # Class of committed instruction
system.cpu.op_class_0::SimdSha256Hash2              0      0.00%     46.46% # Class of committed instruction
system.cpu.op_class_0::SimdShaSigma2                0      0.00%     46.46% # Class of committed instruction
system.cpu.op_class_0::SimdShaSigma3                0      0.00%     46.46% # Class of committed instruction
system.cpu.op_class_0::SimdPredAlu                  0      0.00%     46.46% # Class of committed instruction
system.cpu.op_class_0::MemRead               42693601     42.61%     89.07% # Class of committed instruction
system.cpu.op_class_0::MemWrite              10950624     10.93%    100.00% # Class of committed instruction
system.cpu.op_class_0::FloatMemRead                 0      0.00%    100.00% # Class of committed instruction
system.cpu.op_class_0::FloatMemWrite                0      0.00%    100.00% # Class of committed instruction
system.cpu.op_class_0::IprAccess                    0      0.00%    100.00% # Class of committed instruction
system.cpu.op_class_0::InstPrefetch                 0      0.00%    100.00% # Class of committed instruction
system.cpu.op_class_0::total                100196363                       # Class of committed instruction
system.cpu.tickCycles                       132183084                       # Number of cycles that the object actually ticked
system.cpu.workload.numSyscalls                    84                       # Number of system calls
system.membus.snoop_filter.hit_multi_requests            0                       # Number of requests hitting in the snoop filter with multiple (>1) holders of the requested data.
system.membus.snoop_filter.hit_multi_snoops            0                       # Number of snoops hitting in the snoop filter with multiple (>1) holders of the requested data.
system.membus.snoop_filter.hit_single_requests        76647                       # Number of requests hitting in the snoop filter with a single holder of the requested data.
system.membus.snoop_filter.hit_single_snoops            0                       # Number of snoops hitting in the snoop filter with a single holder of the requested data.
system.membus.snoop_filter.tot_requests        186203                       # Total number of requests made to the snoop filter.
system.membus.snoop_filter.tot_snoops               0                       # Total number of snoops made to the snoop filter.
system.tol2bus.snoop_filter.hit_multi_requests           82                       # Number of requests hitting in the snoop filter with multiple (>1) holders of the requested data.
system.tol2bus.snoop_filter.hit_multi_snoops            0                       # Number of snoops hitting in the snoop filter with multiple (>1) holders of the requested data.
system.tol2bus.snoop_filter.hit_single_requests       432077                       # Number of requests hitting in the snoop filter with a single holder of the requested data.
system.tol2bus.snoop_filter.hit_single_snoops          261                       # Number of snoops hitting in the snoop filter with a single holder of the requested data.
system.tol2bus.snoop_filter.tot_requests       865413                       # Total number of requests made to the snoop filter.
system.tol2bus.snoop_filter.tot_snoops            261                       # Total number of snoops made to the snoop filter.
system.membus.pwrStateResidencyTicks::UNDEFINED  79988056500                       # Cumulative time (in ticks) in various power states
system.membus.trans_dist::ReadResp              29932                       # Transaction distribution
system.membus.trans_dist::WritebackDirty        48577                       # Transaction distribution
system.membus.trans_dist::CleanEvict            28060                       # Transaction distribution
system.membus.trans_dist::ReadExReq             79634                       # Transaction distribution
system.membus.trans_dist::ReadExResp            79634                       # Transaction distribution
system.membus.trans_dist::ReadSharedReq         29932                       # Transaction distribution
system.membus.pkt_count_system.l2.mem_side::system.mem_ctrls.port       295769                       # Packet count per connected master and slave (bytes)
system.membus.pkt_count::total                 295769                       # Packet count per connected master and slave (bytes)
system.membus.pkt_size_system.l2.mem_side::system.mem_ctrls.port     20242304                       # Cumulative packet size per connected master and slave (bytes)
system.membus.pkt_size::total                20242304                       # Cumulative packet size per connected master and slave (bytes)
system.membus.snoops                                0                       # Total snoops (count)
system.membus.snoopTraffic                          0                       # Total snoop traffic (bytes)
system.membus.snoop_fanout::samples            109566                       # Request fanout histogram
system.membus.snoop_fanout::mean                    0                       # Request fanout histogram
system.membus.snoop_fanout::stdev                   0                       # Request fanout histogram
system.membus.snoop_fanout::underflows              0      0.00%      0.00% # Request fanout histogram
system.membus.snoop_fanout::0                  109566    100.00%    100.00% # Request fanout histogram
system.membus.snoop_fanout::1                       0      0.00%    100.00% # Request fanout histogram
system.membus.snoop_fanout::overflows               0      0.00%    100.00% # Request fanout histogram
system.membus.snoop_fanout::min_value               0                       # Request fanout histogram
system.membus.snoop_fanout::max_value               0                       # Request fanout histogram
system.membus.snoop_fanout::total              109566                       # Request fanout histogram
system.membus.respLayer1.occupancy         1022382500                       # Layer occupancy (ticks)
system.membus.respLayer1.utilization              1.3                       # Layer utilization (%)
system.membus.reqLayer0.occupancy           600219000                       # Layer occupancy (ticks)
system.membus.reqLayer0.utilization               0.8                       # Layer utilization (%)
system.tol2bus.pwrStateResidencyTicks::UNDEFINED  79988056500                       # Cumulative time (in ticks) in various power states
system.tol2bus.trans_dist::ReadResp            222590                       # Transaction distribution
system.tol2bus.trans_dist::WritebackDirty       447409                       # Transaction distribution
system.tol2bus.trans_dist::WritebackClean          302                       # Transaction distribution
system.tol2bus.trans_dist::CleanEvict           61262                       # Transaction distribution
system.tol2bus.trans_dist::ReadExReq           210748                       # Transaction distribution
system.tol2bus.trans_dist::ReadExResp          210747                       # Transaction distribution
system.tol2bus.trans_dist::ReadCleanReq           540                       # Transaction distribution
system.tol2bus.trans_dist::ReadSharedReq       222050                       # Transaction distribution
system.tol2bus.pkt_count_system.cpu.icache.mem_side::system.l2.cpu_side         1382                       # Packet count per connected master and slave (bytes)
system.tol2bus.pkt_count_system.cpu.dcache.mem_side::system.l2.cpu_side      1297368                       # Packet count per connected master and slave (bytes)
system.tol2bus.pkt_count::total               1298750                       # Packet count per connected master and slave (bytes)
system.tol2bus.pkt_size_system.cpu.icache.mem_side::system.l2.cpu_side       107776                       # Cumulative packet size per connected master and slave (bytes)
system.tol2bus.pkt_size_system.cpu.dcache.mem_side::system.l2.cpu_side    106448512                       # Cumulative packet size per connected master and slave (bytes)
system.tol2bus.pkt_size::total              106556288                       # Cumulative packet size per connected master and slave (bytes)
system.tol2bus.snoops                           76898                       # Total snoops (count)
system.tol2bus.snoopTraffic                   6217856                       # Total snoop traffic (bytes)
system.tol2bus.snoop_fanout::samples           510236                       # Request fanout histogram
system.tol2bus.snoop_fanout::mean            0.000676                       # Request fanout histogram
system.tol2bus.snoop_fanout::stdev           0.025994                       # Request fanout histogram
system.tol2bus.snoop_fanout::underflows             0      0.00%      0.00% # Request fanout histogram
system.tol2bus.snoop_fanout::0                 509891     99.93%     99.93% # Request fanout histogram
system.tol2bus.snoop_fanout::1                    345      0.07%    100.00% # Request fanout histogram
system.tol2bus.snoop_fanout::2                      0      0.00%    100.00% # Request fanout histogram
system.tol2bus.snoop_fanout::overflows              0      0.00%    100.00% # Request fanout histogram
system.tol2bus.snoop_fanout::min_value              0                       # Request fanout histogram
system.tol2bus.snoop_fanout::max_value              1                       # Request fanout histogram
system.tol2bus.snoop_fanout::total             510236                       # Request fanout histogram
system.tol2bus.reqLayer0.occupancy         1230974500                       # Layer occupancy (ticks)
system.tol2bus.reqLayer0.utilization              1.5                       # Layer utilization (%)
system.tol2bus.respLayer1.occupancy        1081994995                       # Layer occupancy (ticks)
system.tol2bus.respLayer1.utilization             1.4                       # Layer utilization (%)
system.tol2bus.respLayer0.occupancy           1350000                       # Layer occupancy (ticks)
system.tol2bus.respLayer0.utilization             0.0                       # Layer utilization (%)
system.voltage_domain.voltage                       1                       # Voltage in Volts
system.clk_domain.clock                          1000                       # Clock period in ticks
system.l2.pwrStateResidencyTicks::UNDEFINED  79988056500                       # Cumulative time (in ticks) in various power states
system.l2.demand_hits::.cpu.inst                  122                       # number of demand (read+write) hits
system.l2.demand_hits::.cpu.data               323645                       # number of demand (read+write) hits
system.l2.demand_hits::total                   323767                       # number of demand (read+write) hits
system.l2.overall_hits::.cpu.inst                 122                       # number of overall hits
system.l2.overall_hits::.cpu.data              323645                       # number of overall hits
system.l2.overall_hits::total                  323767                       # number of overall hits
system.l2.demand_misses::.cpu.inst                418                       # number of demand (read+write) misses
system.l2.demand_misses::.cpu.data             109153                       # number of demand (read+write) misses
system.l2.demand_misses::total                 109571                       # number of demand (read+write) misses
system.l2.overall_misses::.cpu.inst               418                       # number of overall misses
system.l2.overall_misses::.cpu.data            109153                       # number of overall misses
system.l2.overall_misses::total                109571                       # number of overall misses
system.l2.demand_miss_latency::.cpu.inst     36537500                       # number of demand (read+write) miss cycles
system.l2.demand_miss_latency::.cpu.data   9803806000                       # number of demand (read+write) miss cycles
system.l2.demand_miss_latency::total       9840343500                       # number of demand (read+write) miss cycles
system.l2.overall_miss_latency::.cpu.inst     36537500                       # number of overall miss cycles
system.l2.overall_miss_latency::.cpu.data   9803806000                       # number of overall miss cycles
system.l2.overall_miss_latency::total      9840343500                       # number of overall miss cycles
system.l2.demand_accesses::.cpu.inst              540                       # number of demand (read+write) accesses
system.l2.demand_accesses::.cpu.data           432798                       # number of demand (read+write) accesses
system.l2.demand_accesses::total               433338                       # number of demand (read+write) accesses
system.l2.overall_accesses::.cpu.inst             540                       # number of overall (read+write) accesses
system.l2.overall_accesses::.cpu.data          432798                       # number of overall (read+write) accesses
system.l2.overall_accesses::total              433338                       # number of overall (read+write) accesses
system.l2.demand_miss_rate::.cpu.inst        0.774074                       # miss rate for demand accesses
system.l2.demand_miss_rate::.cpu.data        0.252203                       # miss rate for demand accesses
system.l2.demand_miss_rate::total            0.252853                       # miss rate for demand accesses
system.l2.overall_miss_rate::.cpu.inst       0.774074                       # miss rate for overall accesses
system.l2.overall_miss_rate::.cpu.data       0.252203                       # miss rate for overall accesses
system.l2.overall_miss_rate::total           0.252853                       # miss rate for overall accesses
system.l2.demand_avg_miss_latency::.cpu.inst 87410.287081                       # average overall miss latency
system.l2.demand_avg_miss_latency::.cpu.data 89817.100767                       # average overall miss latency
system.l2.demand_avg_miss_latency::total 89807.919066                       # average overall miss latency
system.l2.overall_avg_miss_latency::.cpu.inst 87410.287081                       # average overall miss latency
system.l2.overall_avg_miss_latency::.cpu.data 89817.100767                       # average overall miss latency
system.l2.overall_avg_miss_latency::total 89807.919066                       # average overall miss latency
system.l2.blocked_cycles::no_mshrs                  0                       # number of cycles access was blocked
system.l2.blocked_cycles::no_targets                0                       # number of cycles access was blocked
system.l2.blocked::no_mshrs                         0                       # number of cycles access was blocked
system.l2.blocked::no_targets                       0                       # number of cycles access was blocked
system.l2.avg_blocked_cycles::no_mshrs            nan                       # average number of cycles each access was blocked
system.l2.avg_blocked_cycles::no_targets          nan                       # average number of cycles each access was blocked
system.l2.writebacks::.writebacks               48577                       # number of writebacks
system.l2.writebacks::total                     48577                       # number of writebacks
system.l2.demand_mshr_hits::.cpu.data               5                       # number of demand (read+write) MSHR hits
system.l2.demand_mshr_hits::total                   5                       # number of demand (read+write) MSHR hits
system.l2.overall_mshr_hits::.cpu.data              5                       # number of overall MSHR hits
system.l2.overall_mshr_hits::total                  5                       # number of overall MSHR hits
system.l2.demand_mshr_misses::.cpu.inst           418                       # number of demand (read+write) MSHR misses
system.l2.demand_mshr_misses::.cpu.data        109148                       # number of demand (read+write) MSHR misses
system.l2.demand_mshr_misses::total            109566                       # number of demand (read+write) MSHR misses
system.l2.overall_mshr_misses::.cpu.inst          418                       # number of overall MSHR misses
system.l2.overall_mshr_misses::.cpu.data       109148                       # number of overall MSHR misses
system.l2.overall_mshr_misses::total           109566                       # number of overall MSHR misses
system.l2.demand_mshr_miss_latency::.cpu.inst     32357500                       # number of demand (read+write) MSHR miss cycles
system.l2.demand_mshr_miss_latency::.cpu.data   8711692500                       # number of demand (read+write) MSHR miss cycles
system.l2.demand_mshr_miss_latency::total   8744050000                       # number of demand (read+write) MSHR miss cycles
system.l2.overall_mshr_miss_latency::.cpu.inst     32357500                       # number of overall MSHR miss cycles
system.l2.overall_mshr_miss_latency::.cpu.data   8711692500                       # number of overall MSHR miss cycles
system.l2.overall_mshr_miss_latency::total   8744050000                       # number of overall MSHR miss cycles
system.l2.demand_mshr_miss_rate::.cpu.inst     0.774074                       # mshr miss rate for demand accesses
system.l2.demand_mshr_miss_rate::.cpu.data     0.252192                       # mshr miss rate for demand accesses
system.l2.demand_mshr_miss_rate::total       0.252842                       # mshr miss rate for demand accesses
system.l2.overall_mshr_miss_rate::.cpu.inst     0.774074                       # mshr miss rate for overall accesses
system.l2.overall_mshr_miss_rate::.cpu.data     0.252192                       # mshr miss rate for overall accesses
system.l2.overall_mshr_miss_rate::total      0.252842                       # mshr miss rate for overall accesses
system.l2.demand_avg_mshr_miss_latency::.cpu.inst 77410.287081                       # average overall mshr miss latency
system.l2.demand_avg_mshr_miss_latency::.cpu.data 79815.411185                       # average overall mshr miss latency
system.l2.demand_avg_mshr_miss_latency::total 79806.235511                       # average overall mshr miss latency
system.l2.overall_avg_mshr_miss_latency::.cpu.inst 77410.287081                       # average overall mshr miss latency
system.l2.overall_avg_mshr_miss_latency::.cpu.data 79815.411185                       # average overall mshr miss latency
system.l2.overall_avg_mshr_miss_latency::total 79806.235511                       # average overall mshr miss latency
system.l2.replacements                          76898                       # number of replacements
system.l2.WritebackDirty_hits::.writebacks       398832                       # number of WritebackDirty hits
system.l2.WritebackDirty_hits::total           398832                       # number of WritebackDirty hits
system.l2.WritebackDirty_accesses::.writebacks       398832                       # number of WritebackDirty accesses(hits+misses)
system.l2.WritebackDirty_accesses::total       398832                       # number of WritebackDirty accesses(hits+misses)
system.l2.WritebackClean_hits::.writebacks          289                       # number of WritebackClean hits
system.l2.WritebackClean_hits::total              289                       # number of WritebackClean hits
system.l2.WritebackClean_accesses::.writebacks          289                       # number of WritebackClean accesses(hits+misses)
system.l2.WritebackClean_accesses::total          289                       # number of WritebackClean accesses(hits+misses)
system.l2.ReadExReq_hits::.cpu.data            131114                       # number of ReadExReq hits
system.l2.ReadExReq_hits::total                131114                       # number of ReadExReq hits
system.l2.ReadExReq_misses::.cpu.data           79634                       # number of ReadExReq misses
system.l2.ReadExReq_misses::total               79634                       # number of ReadExReq misses
system.l2.ReadExReq_miss_latency::.cpu.data   7286009000                       # number of ReadExReq miss cycles
system.l2.ReadExReq_miss_latency::total    7286009000                       # number of ReadExReq miss cycles
system.l2.ReadExReq_accesses::.cpu.data        210748                       # number of ReadExReq accesses(hits+misses)
system.l2.ReadExReq_accesses::total            210748                       # number of ReadExReq accesses(hits+misses)
system.l2.ReadExReq_miss_rate::.cpu.data     0.377864                       # miss rate for ReadExReq accesses
system.l2.ReadExReq_miss_rate::total         0.377864                       # miss rate for ReadExReq accesses
system.l2.ReadExReq_avg_miss_latency::.cpu.data 91493.696160                       # average ReadExReq miss latency
system.l2.ReadExReq_avg_miss_latency::total 91493.696160                       # average ReadExReq miss latency
system.l2.ReadExReq_mshr_misses::.cpu.data        79634                       # number of ReadExReq MSHR misses
system.l2.ReadExReq_mshr_misses::total          79634                       # number of ReadExReq MSHR misses
system.l2.ReadExReq_mshr_miss_latency::.cpu.data   6489669000                       # number of ReadExReq MSHR miss cycles
system.l2.ReadExReq_mshr_miss_latency::total   6489669000                       # number of ReadExReq MSHR miss cycles
system.l2.ReadExReq_mshr_miss_rate::.cpu.data     0.377864                       # mshr miss rate for ReadExReq accesses
system.l2.ReadExReq_mshr_miss_rate::total     0.377864                       # mshr miss rate for ReadExReq accesses
system.l2.ReadExReq_avg_mshr_miss_latency::.cpu.data 81493.696160                       # average ReadExReq mshr miss latency
system.l2.ReadExReq_avg_mshr_miss_latency::total 81493.696160                       # average ReadExReq mshr miss latency
system.l2.ReadCleanReq_hits::.cpu.inst            122                       # number of ReadCleanReq hits
system.l2.ReadCleanReq_hits::total                122                       # number of ReadCleanReq hits
system.l2.ReadCleanReq_misses::.cpu.inst          418                       # number of ReadCleanReq misses
system.l2.ReadCleanReq_misses::total              418                       # number of ReadCleanReq misses
system.l2.ReadCleanReq_miss_latency::.cpu.inst     36537500                       # number of ReadCleanReq miss cycles
system.l2.ReadCleanReq_miss_latency::total     36537500                       # number of ReadCleanReq miss cycles
system.l2.ReadCleanReq_accesses::.cpu.inst          540                       # number of ReadCleanReq accesses(hits+misses)
system.l2.ReadCleanReq_accesses::total            540                       # number of ReadCleanReq accesses(hits+misses)
system.l2.ReadCleanReq_miss_rate::.cpu.inst     0.774074                       # miss rate for ReadCleanReq accesses
system.l2.ReadCleanReq_miss_rate::total      0.774074                       # miss rate for ReadCleanReq accesses
system.l2.ReadCleanReq_avg_miss_latency::.cpu.inst 87410.287081                       # average ReadCleanReq miss latency
system.l2.ReadCleanReq_avg_miss_latency::total 87410.287081                       # average ReadCleanReq miss latency
system.l2.ReadCleanReq_mshr_misses::.cpu.inst          418                       # number of ReadCleanReq MSHR misses
system.l2.ReadCleanReq_mshr_misses::total          418                       # number of ReadCleanReq MSHR misses
system.l2.ReadCleanReq_mshr_miss_latency::.cpu.inst     32357500                       # number of ReadCleanReq MSHR miss cycles
system.l2.ReadCleanReq_mshr_miss_latency::total     32357500                       # number of ReadCleanReq MSHR miss cycles
system.l2.ReadCleanReq_mshr_miss_rate::.cpu.inst     0.774074                       # mshr miss rate for ReadCleanReq accesses
system.l2.ReadCleanReq_mshr_miss_rate::total     0.774074                       # mshr miss rate for ReadCleanReq accesses
system.l2.ReadCleanReq_avg_mshr_miss_latency::.cpu.inst 77410.287081                       # average ReadCleanReq mshr miss latency
system.l2.ReadCleanReq_avg_mshr_miss_latency::total 77410.287081                       # average ReadCleanReq mshr miss latency
system.l2.ReadSharedReq_hits::.cpu.data        192531                       # number of ReadSharedReq hits
system.l2.ReadSharedReq_hits::total            192531                       # number of ReadSharedReq hits
system.l2.ReadSharedReq_misses::.cpu.data        29519                       # number of ReadSharedReq misses
system.l2.ReadSharedReq_misses::total           29519                       # number of ReadSharedReq misses
system.l2.ReadSharedReq_miss_latency::.cpu.data   2517797000                       # number of ReadSharedReq miss cycles
system.l2.ReadSharedReq_miss_latency::total   2517797000                       # number of ReadSharedReq miss cycles
system.l2.ReadSharedReq_accesses::.cpu.data       222050                       # number of ReadSharedReq accesses(hits+misses)
system.l2.ReadSharedReq_accesses::total        222050                       # number of ReadSharedReq accesses(hits+misses)
system.l2.ReadSharedReq_miss_rate::.cpu.data     0.132939                       # miss rate for ReadSharedReq accesses
system.l2.ReadSharedReq_miss_rate::total     0.132939                       # miss rate for ReadSharedReq accesses
system.l2.ReadSharedReq_avg_miss_latency::.cpu.data 85294.115654                       # average ReadSharedReq miss latency
system.l2.ReadSharedReq_avg_miss_latency::total 85294.115654                       # average ReadSharedReq miss latency
system.l2.ReadSharedReq_mshr_hits::.cpu.data            5                       # number of ReadSharedReq MSHR hits
system.l2.ReadSharedReq_mshr_hits::total            5                       # number of ReadSharedReq MSHR hits
system.l2.ReadSharedReq_mshr_misses::.cpu.data        29514                       # number of ReadSharedReq MSHR misses
system.l2.ReadSharedReq_mshr_misses::total        29514                       # number of ReadSharedReq MSHR misses
system.l2.ReadSharedReq_mshr_miss_latency::.cpu.data   2222023500                       # number of ReadSharedReq MSHR miss cycles
system.l2.ReadSharedReq_mshr_miss_latency::total   2222023500                       # number of ReadSharedReq MSHR miss cycles
system.l2.ReadSharedReq_mshr_miss_rate::.cpu.data     0.132916                       # mshr miss rate for ReadSharedReq accesses
system.l2.ReadSharedReq_mshr_miss_rate::total     0.132916                       # mshr miss rate for ReadSharedReq accesses
system.l2.ReadSharedReq_avg_mshr_miss_latency::.cpu.data 75287.101037                       # average ReadSharedReq mshr miss latency
system.l2.ReadSharedReq_avg_mshr_miss_latency::total 75287.101037                       # average ReadSharedReq mshr miss latency
system.l2.tags.pwrStateResidencyTicks::UNDEFINED  79988056500                       # Cumulative time (in ticks) in various power states
system.l2.tags.tagsinuse                 31568.938965                       # Cycle average of tags in use
system.l2.tags.total_refs                      865326                       # Total number of references to valid blocks.
system.l2.tags.sampled_refs                    109666                       # Sample count of references to valid blocks.
system.l2.tags.avg_refs                      7.890559                       # Average number of references to valid blocks.
system.l2.tags.warmup_cycle                     82000                       # Cycle when the warmup percentage was hit.
system.l2.tags.occ_blocks::.writebacks      61.143810                       # Average occupied blocks per requestor
system.l2.tags.occ_blocks::.cpu.inst        78.181569                       # Average occupied blocks per requestor
system.l2.tags.occ_blocks::.cpu.data     31429.613586                       # Average occupied blocks per requestor
system.l2.tags.occ_percent::.writebacks      0.001866                       # Average percentage of cache occupancy
system.l2.tags.occ_percent::.cpu.inst        0.002386                       # Average percentage of cache occupancy
system.l2.tags.occ_percent::.cpu.data        0.959156                       # Average percentage of cache occupancy
system.l2.tags.occ_percent::total            0.963408                       # Average percentage of cache occupancy
system.l2.tags.occ_task_id_blocks::1024         32768                       # Occupied blocks per task id
system.l2.tags.age_task_id_blocks_1024::0            5                       # Occupied blocks per task id
system.l2.tags.age_task_id_blocks_1024::1            5                       # Occupied blocks per task id
system.l2.tags.age_task_id_blocks_1024::2           42                       # Occupied blocks per task id
system.l2.tags.age_task_id_blocks_1024::3         2956                       # Occupied blocks per task id
system.l2.tags.age_task_id_blocks_1024::4        29760                       # Occupied blocks per task id
system.l2.tags.occ_task_id_percent::1024            1                       # Percentage of cache occupancy per task id
system.l2.tags.tag_accesses                   3570990                       # Number of tag accesses
system.l2.tags.data_accesses                  3570990                       # Number of data accesses
system.cpu_voltage_domain.voltage                   1                       # Voltage in Volts
system.mem_ctrls.pwrStateResidencyTicks::UNDEFINED  79988056500                       # Cumulative time (in ticks) in various power states
system.mem_ctrls.bytes_read::.cpu.inst          53504                       # Number of bytes read from this memory
system.mem_ctrls.bytes_read::.cpu.data       13970944                       # Number of bytes read from this memory
system.mem_ctrls.bytes_read::total           14024448                       # Number of bytes read from this memory
system.mem_ctrls.bytes_inst_read::.cpu.inst        53504                       # Number of instructions bytes read from this memory
system.mem_ctrls.bytes_inst_read::total         53504                       # Number of instructions bytes read from this memory
system.mem_ctrls.bytes_written::.writebacks      6217856                       # Number of bytes written to this memory
system.mem_ctrls.bytes_written::total         6217856                       # Number of bytes written to this memory
system.mem_ctrls.num_reads::.cpu.inst             418                       # Number of read requests responded to by this memory
system.mem_ctrls.num_reads::.cpu.data          109148                       # Number of read requests responded to by this memory
system.mem_ctrls.num_reads::total              109566                       # Number of read requests responded to by this memory
system.mem_ctrls.num_writes::.writebacks        48577                       # Number of write requests responded to by this memory
system.mem_ctrls.num_writes::total              48577                       # Number of write requests responded to by this memory
system.mem_ctrls.bw_read::.cpu.inst            668900                       # Total read bandwidth from this memory (bytes/s)
system.mem_ctrls.bw_read::.cpu.data         174662876                       # Total read bandwidth from this memory (bytes/s)
system.mem_ctrls.bw_read::total             175331776                       # Total read bandwidth from this memory (bytes/s)
system.mem_ctrls.bw_inst_read::.cpu.inst       668900                       # Instruction read bandwidth from this memory (bytes/s)
system.mem_ctrls.bw_inst_read::total           668900                       # Instruction read bandwidth from this memory (bytes/s)
system.mem_ctrls.bw_write::.writebacks       77734805                       # Write bandwidth from this memory (bytes/s)
system.mem_ctrls.bw_write::total             77734805                       # Write bandwidth from this memory (bytes/s)
system.mem_ctrls.bw_total::.writebacks       77734805                       # Total bandwidth to/from this memory (bytes/s)
system.mem_ctrls.bw_total::.cpu.inst           668900                       # Total bandwidth to/from this memory (bytes/s)
system.mem_ctrls.bw_total::.cpu.data        174662876                       # Total bandwidth to/from this memory (bytes/s)
system.mem_ctrls.bw_total::total            253066581                       # Total bandwidth to/from this memory (bytes/s)
system.mem_ctrls.avgPriority_.writebacks::samples     97154.00                       # Average QoS priority value for accepted requests
system.mem_ctrls.avgPriority_.cpu.inst::samples       836.00                       # Average QoS priority value for accepted requests
system.mem_ctrls.avgPriority_.cpu.data::samples    218265.00                       # Average QoS priority value for accepted requests
system.mem_ctrls.priorityMinLatency      0.000000018750                       # per QoS priority minimum request to response latency (s)
system.mem_ctrls.priorityMaxLatency      0.012194036500                       # per QoS priority maximum request to response latency (s)
system.mem_ctrls.numReadWriteTurnArounds         5925                       # Number of turnarounds from READ to WRITE
system.mem_ctrls.numWriteReadTurnArounds         5925                       # Number of turnarounds from WRITE to READ
system.mem_ctrls.numStayReadState              386119                       # Number of times bus staying in READ state
system.mem_ctrls.numStayWriteState              91332                       # Number of times bus staying in WRITE state
system.mem_ctrls.readReqs                      109566                       # Number of read requests accepted
system.mem_ctrls.writeReqs                      48577                       # Number of write requests accepted
system.mem_ctrls.readBursts                    219132                       # Number of DRAM read bursts, including those serviced by the write queue
system.mem_ctrls.writeBursts                    97154                       # Number of DRAM write bursts, including those merged in the write queue
system.mem_ctrls.servicedByWrQ                     31                       # Number of DRAM read bursts serviced by the write queue
system.mem_ctrls.mergedWrBursts                     0                       # Number of DRAM write bursts merged with an existing one
system.mem_ctrls.neitherReadNorWriteReqs            0                       # Number of requests that are neither read nor write
system.mem_ctrls.perBankRdBursts::0             13942                       # Per bank write bursts
system.mem_ctrls.perBankRdBursts::1             13798                       # Per bank write bursts
system.mem_ctrls.perBankRdBursts::2             13823                       # Per bank write bursts
system.mem_ctrls.perBankRdBursts::3             13516                       # Per bank write bursts
system.mem_ctrls.perBankRdBursts::4             13558                       # Per bank write bursts
system.mem_ctrls.perBankRdBursts::5             13596                       # Per bank write bursts
system.mem_ctrls.perBankRdBursts::6             13528                       # Per bank write bursts
system.mem_ctrls.perBankRdBursts::7             13694                       # Per bank write bursts
system.mem_ctrls.perBankRdBursts::8             13750                       # Per bank write bursts
system.mem_ctrls.perBankRdBursts::9             13698                       # Per bank write bursts
system.mem_ctrls.perBankRdBursts::10            13852                       # Per bank write bursts
system.mem_ctrls.perBankRdBursts::11            13828                       # Per bank write bursts
system.mem_ctrls.perBankRdBursts::12            13784                       # Per bank write bursts
system.mem_ctrls.perBankRdBursts::13            13616                       # Per bank write bursts
system.mem_ctrls.perBankRdBursts::14            13448                       # Per bank write bursts
system.mem_ctrls.perBankRdBursts::15            13670                       # Per bank write bursts
system.mem_ctrls.perBankWrBursts::0              6182                       # Per bank write bursts
system.mem_ctrls.perBankWrBursts::1              6152                       # Per bank write bursts
system.mem_ctrls.perBankWrBursts::2              6150                       # Per bank write bursts
system.mem_ctrls.perBankWrBursts::3              6088                       # Per bank write bursts
system.mem_ctrls.perBankWrBursts::4              6048                       # Per bank write bursts
system.mem_ctrls.perBankWrBursts::5              6046                       # Per bank write bursts
system.mem_ctrls.perBankWrBursts::6              5928                       # Per bank write bursts
system.mem_ctrls.perBankWrBursts::7              5984                       # Per bank write bursts
system.mem_ctrls.perBankWrBursts::8              6059                       # Per bank write bursts
system.mem_ctrls.perBankWrBursts::9              6054                       # Per bank write bursts
system.mem_ctrls.perBankWrBursts::10             6046                       # Per bank write bursts
system.mem_ctrls.perBankWrBursts::11             6072                       # Per bank write bursts
system.mem_ctrls.perBankWrBursts::12             6074                       # Per bank write bursts
system.mem_ctrls.perBankWrBursts::13             6074                       # Per bank write bursts
system.mem_ctrls.perBankWrBursts::14             6072                       # Per bank write bursts
system.mem_ctrls.perBankWrBursts::15             6100                       # Per bank write bursts
system.mem_ctrls.avgRdQLen                       2.06                       # Average read queue length when enqueuing
system.mem_ctrls.avgWrQLen                      25.49                       # Average write queue length when enqueuing
system.mem_ctrls.totQLat                   3809320000                       # Total ticks spent queuing
system.mem_ctrls.totBusLat                 1095505000                       # Total ticks spent in databus transfers
system.mem_ctrls.totMemAccLat              7917463750                       # Total ticks spent from burst creation until serviced by the DRAM
system.mem_ctrls.avgQLat                     17386.14                       # Average queueing delay per DRAM burst
system.mem_ctrls.avgBusLat                    5000.00                       # Average bus latency per DRAM burst
system.mem_ctrls.avgMemAccLat                36136.14                       # Average memory access latency per DRAM burst
system.mem_ctrls.numRdRetry                         0                       # Number of times read queue was full causing retry
system.mem_ctrls.numWrRetry                         0                       # Number of times write queue was full causing retry
system.mem_ctrls.readRowHits                   185755                       # Number of row buffer hits during reads
system.mem_ctrls.writeRowHits                   84741                       # Number of row buffer hits during writes
system.mem_ctrls.readRowHitRate                 84.78                       # Row buffer hit rate for reads
system.mem_ctrls.writeRowHitRate                87.22                       # Row buffer hit rate for writes
system.mem_ctrls.readPktSize::0                     0                       # Read request sizes (log2)
system.mem_ctrls.readPktSize::1                     0                       # Read request sizes (log2)
system.mem_ctrls.readPktSize::2                     0                       # Read request sizes (log2)
system.mem_ctrls.readPktSize::3                     0                       # Read request sizes (log2)
system.mem_ctrls.readPktSize::4                     0                       # Read request sizes (log2)
system.mem_ctrls.readPktSize::5                     0                       # Read request sizes (log2)
system.mem_ctrls.readPktSize::6                219132                       # Read request sizes (log2)
system.mem_ctrls.writePktSize::0                    0                       # Write request sizes (log2)
system.mem_ctrls.writePktSize::1                    0                       # Write request sizes (log2)
system.mem_ctrls.writePktSize::2                    0                       # Write request sizes (log2)
system.mem_ctrls.writePktSize::3                    0                       # Write request sizes (log2)
system.mem_ctrls.writePktSize::4                    0                       # Write request sizes (log2)
system.mem_ctrls.writePktSize::5                    0                       # Write request sizes (log2)
system.mem_ctrls.writePktSize::6                97154                       # Write request sizes (log2)
system.mem_ctrls.rdQLenPdf::0                   92050                       # What read queue length does an incoming req see
system.mem_ctrls.rdQLenPdf::1                   92311                       # What read queue length does an incoming req see
system.mem_ctrls.rdQLenPdf::2                   17495                       # What read queue length does an incoming req see
system.mem_ctrls.rdQLenPdf::3                   17234                       # What read queue length does an incoming req see
system.mem_ctrls.rdQLenPdf::4                       5                       # What read queue length does an incoming req see
system.mem_ctrls.rdQLenPdf::5                       4                       # What read queue length does an incoming req see
system.mem_ctrls.rdQLenPdf::6                       1                       # What read queue length does an incoming req see
system.mem_ctrls.rdQLenPdf::7                       1                       # What read queue length does an incoming req see
system.mem_ctrls.rdQLenPdf::8                       0                       # What read queue length does an incoming req see
system.mem_ctrls.rdQLenPdf::9                       0                       # What read queue length does an incoming req see
system.mem_ctrls.rdQLenPdf::10                      0                       # What read queue length does an incoming req see
system.mem_ctrls.rdQLenPdf::11                      0                       # What read queue length does an incoming req see
system.mem_ctrls.rdQLenPdf::12                      0                       # What read queue length does an incoming req see
system.mem_ctrls.rdQLenPdf::13                      0                       # What read queue length does an incoming req see
system.mem_ctrls.rdQLenPdf::14                      0                       # What read queue length does an incoming req see
system.mem_ctrls.rdQLenPdf::15                      0                       # What read queue length does an incoming req see
system.mem_ctrls.rdQLenPdf::16                      0                       # What read queue length does an incoming req see
system.mem_ctrls.rdQLenPdf::17                      0                       # What read queue length does an incoming req see
system.mem_ctrls.rdQLenPdf::18                      0                       # What read queue length does an incoming req see
system.mem_ctrls.rdQLenPdf::19                      0                       # What read queue length does an incoming req see
system.mem_ctrls.rdQLenPdf::20                      0                       # What read queue length does an incoming req see
system.mem_ctrls.rdQLenPdf::21                      0                       # What read queue length does an incoming req see
system.mem_ctrls.rdQLenPdf::22                      0                       # What read queue length does an incoming req see
system.mem_ctrls.rdQLenPdf::23                      0                       # What read queue length does an incoming req see
system.mem_ctrls.rdQLenPdf::24                      0                       # What read queue length does an incoming req see
system.mem_ctrls.rdQLenPdf::25                      0                       # What read queue length does an incoming req see
system.mem_ctrls.rdQLenPdf::26                      0                       # What read queue length does an incoming req see
system.mem_ctrls.rdQLenPdf::27                      0                       # What read queue length does an incoming req see
system.mem_ctrls.rdQLenPdf::28                      0                       # What read queue length does an incoming req see
system.mem_ctrls.rdQLenPdf::29                      0                       # What read queue length does an incoming req see
system.mem_ctrls.rdQLenPdf::30                      0                       # What read queue length does an incoming req see
system.mem_ctrls.rdQLenPdf::31                      0                       # What read queue length does an incoming req see
system.mem_ctrls.wrQLenPdf::0                       1                       # What write queue length does an incoming req see
system.mem_ctrls.wrQLenPdf::1                       1                       # What write queue length does an incoming req see
system.mem_ctrls.wrQLenPdf::2                       1                       # What write queue length does an incoming req see
system.mem_ctrls.wrQLenPdf::3                       1                       # What write queue length does an incoming req see
system.mem_ctrls.wrQLenPdf::4                       1                       # What write queue length does an incoming req see
system.mem_ctrls.wrQLenPdf::5                       1                       # What write queue length does an incoming req see
system.mem_ctrls.wrQLenPdf::6                       1                       # What write queue length does an incoming req see
system.mem_ctrls.wrQLenPdf::7                       1                       # What write queue length does an incoming req see
system.mem_ctrls.wrQLenPdf::8                       1                       # What write queue length does an incoming req see
system.mem_ctrls.wrQLenPdf::9                       1                       # What write queue length does an incoming req see
system.mem_ctrls.wrQLenPdf::10                      1                       # What write queue length does an incoming req see
system.mem_ctrls.wrQLenPdf::11                      1                       # What write queue length does an incoming req see
system.mem_ctrls.wrQLenPdf::12                      1                       # What write queue length does an incoming req see
system.mem_ctrls.wrQLenPdf::13                      1                       # What write queue length does an incoming req see
system.mem_ctrls.wrQLenPdf::14                      1                       # What write queue length does an incoming req see
system.mem_ctrls.wrQLenPdf::15                   1099                       # What write queue length does an incoming req see
system.mem_ctrls.wrQLenPdf::16                   1107                       # What write queue length does an incoming req see
system.mem_ctrls.wrQLenPdf::17                   2449                       # What write queue length does an incoming req see
system.mem_ctrls.wrQLenPdf::18                   2946                       # What write queue length does an incoming req see
system.mem_ctrls.wrQLenPdf::19                   3447                       # What write queue length does an incoming req see
system.mem_ctrls.wrQLenPdf::20                   5969                       # What write queue length does an incoming req see
system.mem_ctrls.wrQLenPdf::21                   5984                       # What write queue length does an incoming req see
system.mem_ctrls.wrQLenPdf::22                   5973                       # What write queue length does an incoming req see
system.mem_ctrls.wrQLenPdf::23                   5954                       # What write queue length does an incoming req see
system.mem_ctrls.wrQLenPdf::24                   5987                       # What write queue length does an incoming req see
system.mem_ctrls.wrQLenPdf::25                   6654                       # What write queue length does an incoming req see
system.mem_ctrls.wrQLenPdf::26                   8530                       # What write queue length does an incoming req see
system.mem_ctrls.wrQLenPdf::27                   7876                       # What write queue length does an incoming req see
system.mem_ctrls.wrQLenPdf::28                   5979                       # What write queue length does an incoming req see
system.mem_ctrls.wrQLenPdf::29                   6126                       # What write queue length does an incoming req see
system.mem_ctrls.wrQLenPdf::30                   6133                       # What write queue length does an incoming req see
system.mem_ctrls.wrQLenPdf::31                   5976                       # What write queue length does an incoming req see
system.mem_ctrls.wrQLenPdf::32                   5934                       # What write queue length does an incoming req see
system.mem_ctrls.wrQLenPdf::33                   2999                       # What write queue length does an incoming req see
system.mem_ctrls.wrQLenPdf::34                     11                       # What write queue length does an incoming req see
system.mem_ctrls.wrQLenPdf::35                      6                       # What write queue length does an incoming req see
system.mem_ctrls.wrQLenPdf::36                      0                       # What write queue length does an incoming req see
system.mem_ctrls.wrQLenPdf::37                      0                       # What write queue length does an incoming req see
system.mem_ctrls.wrQLenPdf::38                      0                       # What write queue length does an incoming req see
system.mem_ctrls.wrQLenPdf::39                      0                       # What write queue length does an incoming req see
system.mem_ctrls.wrQLenPdf::40                      0                       # What write queue length does an incoming req see
system.mem_ctrls.wrQLenPdf::41                      0                       # What write queue length does an incoming req see
system.mem_ctrls.wrQLenPdf::42                      0                       # What write queue length does an incoming req see
system.mem_ctrls.wrQLenPdf::43                      0                       # What write queue length does an incoming req see
system.mem_ctrls.wrQLenPdf::44                      0                       # What write queue length does an incoming req see
system.mem_ctrls.wrQLenPdf::45                      0                       # What write queue length does an incoming req see
system.mem_ctrls.wrQLenPdf::46                      0                       # What write queue length does an incoming req see
system.mem_ctrls.wrQLenPdf::47                      0                       # What write queue length does an incoming req see
system.mem_ctrls.wrQLenPdf::48                      0                       # What write queue length does an incoming req see
system.mem_ctrls.wrQLenPdf::49                      0                       # What write queue length does an incoming req see
system.mem_ctrls.wrQLenPdf::50                      0                       # What write queue length does an incoming req see
system.mem_ctrls.wrQLenPdf::51                      0                       # What write queue length does an incoming req see
system.mem_ctrls.wrQLenPdf::52                      0                       # What write queue length does an incoming req see
system.mem_ctrls.wrQLenPdf::53                      0                       # What write queue length does an incoming req see
system.mem_ctrls.wrQLenPdf::54                      0                       # What write queue length does an incoming req see
system.mem_ctrls.wrQLenPdf::55                      0                       # What write queue length does an incoming req see
system.mem_ctrls.wrQLenPdf::56                      0                       # What write queue length does an incoming req see
system.mem_ctrls.wrQLenPdf::57                      0                       # What write queue length does an incoming req see
system.mem_ctrls.wrQLenPdf::58                      0                       # What write queue length does an incoming req see
system.mem_ctrls.wrQLenPdf::59                      0                       # What write queue length does an incoming req see
system.mem_ctrls.wrQLenPdf::60                      0                       # What write queue length does an incoming req see
system.mem_ctrls.wrQLenPdf::61                      0                       # What write queue length does an incoming req see
system.mem_ctrls.wrQLenPdf::62                      0                       # What write queue length does an incoming req see
system.mem_ctrls.wrQLenPdf::63                      0                       # What write queue length does an incoming req see
system.mem_ctrls.bytesPerActivate::samples        45730                       # Bytes accessed per row activation
system.mem_ctrls.bytesPerActivate::mean    442.555871                       # Bytes accessed per row activation
system.mem_ctrls.bytesPerActivate::gmean   280.754402                       # Bytes accessed per row activation
system.mem_ctrls.bytesPerActivate::stdev   398.651252                       # Bytes accessed per row activation
system.mem_ctrls.bytesPerActivate::0-127         1008      2.20%      2.20% # Bytes accessed per row activation
system.mem_ctrls.bytesPerActivate::128-255        24428     53.42%     55.62% # Bytes accessed per row activation
system.mem_ctrls.bytesPerActivate::256-383         2216      4.85%     60.47% # Bytes accessed per row activation
system.mem_ctrls.bytesPerActivate::384-511         1007      2.20%     62.67% # Bytes accessed per row activation
system.mem_ctrls.bytesPerActivate::512-639          990      2.16%     64.83% # Bytes accessed per row activation
system.mem_ctrls.bytesPerActivate::640-767         1574      3.44%     68.28% # Bytes accessed per row activation
system.mem_ctrls.bytesPerActivate::768-895         1097      2.40%     70.68% # Bytes accessed per row activation
system.mem_ctrls.bytesPerActivate::896-1023          681      1.49%     72.16% # Bytes accessed per row activation
system.mem_ctrls.bytesPerActivate::1024-1151        12729     27.84%    100.00% # Bytes accessed per row activation
system.mem_ctrls.bytesPerActivate::total        45730                       # Bytes accessed per row activation
system.mem_ctrls.rdPerTurnAround::samples         5925                       # Reads before turning the bus around for writes
system.mem_ctrls.rdPerTurnAround::mean      36.977384                       # Reads before turning the bus around for writes
system.mem_ctrls.rdPerTurnAround::gmean     24.774995                       # Reads before turning the bus around for writes
system.mem_ctrls.rdPerTurnAround::stdev    125.411157                       # Reads before turning the bus around for writes
system.mem_ctrls.rdPerTurnAround::0-511          5913     99.80%     99.80% # Reads before turning the bus around for writes
system.mem_ctrls.rdPerTurnAround::512-1023           10      0.17%     99.97% # Reads before turning the bus around for writes
system.mem_ctrls.rdPerTurnAround::1536-2047            1      0.02%     99.98% # Reads before turning the bus around for writes
system.mem_ctrls.rdPerTurnAround::8704-9215            1      0.02%    100.00% # Reads before turning the bus around for writes
system.mem_ctrls.rdPerTurnAround::total          5925                       # Reads before turning the bus around for writes
system.mem_ctrls.wrPerTurnAround::samples         5925                       # Writes before turning the bus around for reads
system.mem_ctrls.wrPerTurnAround::mean      16.393080                       # Writes before turning the bus around for reads
system.mem_ctrls.wrPerTurnAround::gmean     16.372955                       # Writes before turning the bus around for reads
system.mem_ctrls.wrPerTurnAround::stdev      0.837539                       # Writes before turning the bus around for reads
[...]
system.cpu.icache.ReadReq_mshr_misses::.cpu.inst          540                       # number of ReadReq MSHR misses
system.cpu.icache.ReadReq_mshr_misses::total          540                       # number of ReadReq MSHR misses
system.cpu.icache.ReadReq_mshr_miss_latency::.cpu.inst     38721000                       # number of ReadReq MSHR miss cycles
system.cpu.icache.ReadReq_mshr_miss_latency::total     38721000                       # number of ReadReq MSHR miss cycles
system.cpu.icache.ReadReq_mshr_miss_rate::.cpu.inst     0.000067                       # mshr miss rate for ReadReq accesses
system.cpu.icache.ReadReq_mshr_miss_rate::total     0.000067                       # mshr miss rate for ReadReq accesses
system.cpu.icache.ReadReq_avg_mshr_miss_latency::.cpu.inst 71705.555556                       # average ReadReq mshr miss latency
system.cpu.icache.ReadReq_avg_mshr_miss_latency::total 71705.555556                       # average ReadReq mshr miss latency
system.cpu.icache.tags.pwrStateResidencyTicks::UNDEFINED  79988056500                       # Cumulative time (in ticks) in various power states
system.cpu.icache.tags.tagsinuse           203.849793                       # Cycle average of tags in use
system.cpu.icache.tags.total_refs             8050866                       # Total number of references to valid blocks.
system.cpu.icache.tags.sampled_refs               540                       # Sample count of references to valid blocks.
system.cpu.icache.tags.avg_refs          14909.011111                       # Average number of references to valid blocks.
system.cpu.icache.tags.warmup_cycle             92500                       # Cycle when the warmup percentage was hit.
system.cpu.icache.tags.occ_blocks::.cpu.inst   203.849793                       # Average occupied blocks per requestor
system.cpu.icache.tags.occ_percent::.cpu.inst     0.796288                       # Average percentage of cache occupancy
system.cpu.icache.tags.occ_percent::total     0.796288                       # Average percentage of cache occupancy
system.cpu.icache.tags.occ_task_id_blocks::1024          238                       # Occupied blocks per task id
system.cpu.icache.tags.age_task_id_blocks_1024::3           52                       # Occupied blocks per task id
system.cpu.icache.tags.age_task_id_blocks_1024::4          186                       # Occupied blocks per task id
system.cpu.icache.tags.occ_task_id_percent::1024     0.929688                       # Percentage of cache occupancy per task id
system.cpu.icache.tags.tag_accesses          16102272                       # Number of tag accesses
system.cpu.icache.tags.data_accesses         16102272                       # Number of data accesses
system.cpu.dtb.walker.pwrStateResidencyTicks::UNDEFINED  79988056500                       # Cumulative time (in ticks) in various power states
system.cpu.dtb.stage2_mmu.stage2_tlb.walker.pwrStateResidencyTicks::UNDEFINED  79988056500                       # Cumulative time (in ticks) in various power states
system.cpu.dcache.pwrStateResidencyTicks::UNDEFINED  79988056500                       # Cumulative time (in ticks) in various power states
system.cpu.dcache.demand_hits::.cpu.data     51590923                       # number of demand (read+write) hits
system.cpu.dcache.demand_hits::total         51590923                       # number of demand (read+write) hits
system.cpu.dcache.overall_hits::.cpu.data     51591520                       # number of overall hits
system.cpu.dcache.overall_hits::total        51591520                       # number of overall hits
system.cpu.dcache.demand_misses::.cpu.data       463354                       # number of demand (read+write) misses
system.cpu.dcache.demand_misses::total         463354                       # number of demand (read+write) misses
system.cpu.dcache.overall_misses::.cpu.data       471176                       # number of overall misses
system.cpu.dcache.overall_misses::total        471176                       # number of overall misses
system.cpu.dcache.demand_miss_latency::.cpu.data  16420591500                       # number of demand (read+write) miss cycles
system.cpu.dcache.demand_miss_latency::total  16420591500                       # number of demand (read+write) miss cycles
system.cpu.dcache.overall_miss_latency::.cpu.data  16420591500                       # number of overall miss cycles
system.cpu.dcache.overall_miss_latency::total  16420591500                       # number of overall miss cycles
system.cpu.dcache.demand_accesses::.cpu.data     52054277                       # number of demand (read+write) accesses
system.cpu.dcache.demand_accesses::total     52054277                       # number of demand (read+write) accesses
system.cpu.dcache.overall_accesses::.cpu.data     52062696                       # number of overall (read+write) accesses
system.cpu.dcache.overall_accesses::total     52062696                       # number of overall (read+write) accesses
system.cpu.dcache.demand_miss_rate::.cpu.data     0.008901                       # miss rate for demand accesses
system.cpu.dcache.demand_miss_rate::total     0.008901                       # miss rate for demand accesses
system.cpu.dcache.overall_miss_rate::.cpu.data     0.009050                       # miss rate for overall accesses
system.cpu.dcache.overall_miss_rate::total     0.009050                       # miss rate for overall accesses
system.cpu.dcache.demand_avg_miss_latency::.cpu.data 35438.544827                       # average overall miss latency
system.cpu.dcache.demand_avg_miss_latency::total 35438.544827                       # average overall miss latency
system.cpu.dcache.overall_avg_miss_latency::.cpu.data 34850.229001                       # average overall miss latency
system.cpu.dcache.overall_avg_miss_latency::total 34850.229001                       # average overall miss latency
system.cpu.dcache.blocked_cycles::no_mshrs            0                       # number of cycles access was blocked
system.cpu.dcache.blocked_cycles::no_targets            0                       # number of cycles access was blocked
system.cpu.dcache.blocked::no_mshrs                 0                       # number of cycles access was blocked
system.cpu.dcache.blocked::no_targets               0                       # number of cycles access was blocked
system.cpu.dcache.avg_blocked_cycles::no_mshrs          nan                       # average number of cycles each access was blocked
system.cpu.dcache.avg_blocked_cycles::no_targets          nan                       # average number of cycles each access was blocked
system.cpu.dcache.writebacks::.writebacks       398832                       # number of writebacks
system.cpu.dcache.writebacks::total            398832                       # number of writebacks
system.cpu.dcache.demand_mshr_hits::.cpu.data        34511                       # number of demand (read+write) MSHR hits
system.cpu.dcache.demand_mshr_hits::total        34511                       # number of demand (read+write) MSHR hits
system.cpu.dcache.overall_mshr_hits::.cpu.data        34511                       # number of overall MSHR hits
system.cpu.dcache.overall_mshr_hits::total        34511                       # number of overall MSHR hits
system.cpu.dcache.demand_mshr_misses::.cpu.data       428843                       # number of demand (read+write) MSHR misses
system.cpu.dcache.demand_mshr_misses::total       428843                       # number of demand (read+write) MSHR misses
system.cpu.dcache.overall_mshr_misses::.cpu.data       432798                       # number of overall MSHR misses
system.cpu.dcache.overall_mshr_misses::total       432798                       # number of overall MSHR misses
system.cpu.dcache.demand_mshr_miss_latency::.cpu.data  13565182000                       # number of demand (read+write) MSHR miss cycles
system.cpu.dcache.demand_mshr_miss_latency::total  13565182000                       # number of demand (read+write) MSHR miss cycles
system.cpu.dcache.overall_mshr_miss_latency::.cpu.data  13864729000                       # number of overall MSHR miss cycles
system.cpu.dcache.overall_mshr_miss_latency::total  13864729000                       # number of overall MSHR miss cycles
system.cpu.dcache.demand_mshr_miss_rate::.cpu.data     0.008238                       # mshr miss rate for demand accesses
system.cpu.dcache.demand_mshr_miss_rate::total     0.008238                       # mshr miss rate for demand accesses
system.cpu.dcache.overall_mshr_miss_rate::.cpu.data     0.008313                       # mshr miss rate for overall accesses
system.cpu.dcache.overall_mshr_miss_rate::total     0.008313                       # mshr miss rate for overall accesses
system.cpu.dcache.demand_avg_mshr_miss_latency::.cpu.data 31632.047159                       # average overall mshr miss latency
system.cpu.dcache.demand_avg_mshr_miss_latency::total 31632.047159                       # average overall mshr miss latency
system.cpu.dcache.overall_avg_mshr_miss_latency::.cpu.data 32035.104136                       # average overall mshr miss latency
system.cpu.dcache.overall_avg_mshr_miss_latency::total 32035.104136                       # average overall mshr miss latency
system.cpu.dcache.replacements                 431773                       # number of replacements
system.cpu.dcache.ReadReq_hits::.cpu.data     40884258                       # number of ReadReq hits
system.cpu.dcache.ReadReq_hits::total        40884258                       # number of ReadReq hits
system.cpu.dcache.ReadReq_misses::.cpu.data       219927                       # number of ReadReq misses
system.cpu.dcache.ReadReq_misses::total        219927                       # number of ReadReq misses
system.cpu.dcache.ReadReq_miss_latency::.cpu.data   4939685000                       # number of ReadReq miss cycles
system.cpu.dcache.ReadReq_miss_latency::total   4939685000                       # number of ReadReq miss cycles
system.cpu.dcache.ReadReq_accesses::.cpu.data     41104185                       # number of ReadReq accesses(hits+misses)
system.cpu.dcache.ReadReq_accesses::total     41104185                       # number of ReadReq accesses(hits+misses)
system.cpu.dcache.ReadReq_miss_rate::.cpu.data     0.005350                       # miss rate for ReadReq accesses
system.cpu.dcache.ReadReq_miss_rate::total     0.005350                       # miss rate for ReadReq accesses
system.cpu.dcache.ReadReq_avg_miss_latency::.cpu.data 22460.566461                       # average ReadReq miss latency
system.cpu.dcache.ReadReq_avg_miss_latency::total 22460.566461                       # average ReadReq miss latency
system.cpu.dcache.ReadReq_mshr_hits::.cpu.data         1832                       # number of ReadReq MSHR hits
system.cpu.dcache.ReadReq_mshr_hits::total         1832                       # number of ReadReq MSHR hits
system.cpu.dcache.ReadReq_mshr_misses::.cpu.data       218095                       # number of ReadReq MSHR misses
system.cpu.dcache.ReadReq_mshr_misses::total       218095                       # number of ReadReq MSHR misses
system.cpu.dcache.ReadReq_mshr_miss_latency::.cpu.data   4584910000                       # number of ReadReq MSHR miss cycles
system.cpu.dcache.ReadReq_mshr_miss_latency::total   4584910000                       # number of ReadReq MSHR miss cycles
system.cpu.dcache.ReadReq_mshr_miss_rate::.cpu.data     0.005306                       # mshr miss rate for ReadReq accesses
system.cpu.dcache.ReadReq_mshr_miss_rate::total     0.005306                       # mshr miss rate for ReadReq accesses
system.cpu.dcache.ReadReq_avg_mshr_miss_latency::.cpu.data 21022.536051                       # average ReadReq mshr miss latency
system.cpu.dcache.ReadReq_avg_mshr_miss_latency::total 21022.536051                       # average ReadReq mshr miss latency
system.cpu.dcache.WriteReq_hits::.cpu.data     10706665                       # number of WriteReq hits
system.cpu.dcache.WriteReq_hits::total       10706665                       # number of WriteReq hits
system.cpu.dcache.WriteReq_misses::.cpu.data       243427                       # number of WriteReq misses
system.cpu.dcache.WriteReq_misses::total       243427                       # number of WriteReq misses
system.cpu.dcache.WriteReq_miss_latency::.cpu.data  11480906500                       # number of WriteReq miss cycles
system.cpu.dcache.WriteReq_miss_latency::total  11480906500                       # number of WriteReq miss cycles
system.cpu.dcache.WriteReq_accesses::.cpu.data     10950092                       # number of WriteReq accesses(hits+misses)
system.cpu.dcache.WriteReq_accesses::total     10950092                       # number of WriteReq accesses(hits+misses)
system.cpu.dcache.WriteReq_miss_rate::.cpu.data     0.022231                       # miss rate for WriteReq accesses
system.cpu.dcache.WriteReq_miss_rate::total     0.022231                       # miss rate for WriteReq accesses
system.cpu.dcache.WriteReq_avg_miss_latency::.cpu.data 47163.652758                       # average WriteReq miss latency
system.cpu.dcache.WriteReq_avg_miss_latency::total 47163.652758                       # average WriteReq miss latency
system.cpu.dcache.WriteReq_mshr_hits::.cpu.data        32679                       # number of WriteReq MSHR hits
system.cpu.dcache.WriteReq_mshr_hits::total        32679                       # number of WriteReq MSHR hits
system.cpu.dcache.WriteReq_mshr_misses::.cpu.data       210748                       # number of WriteReq MSHR misses
system.cpu.dcache.WriteReq_mshr_misses::total       210748                       # number of WriteReq MSHR misses
system.cpu.dcache.WriteReq_mshr_miss_latency::.cpu.data   8980272000                       # number of WriteReq MSHR miss cycles
system.cpu.dcache.WriteReq_mshr_miss_latency::total   8980272000                       # number of WriteReq MSHR miss cycles
system.cpu.dcache.WriteReq_mshr_miss_rate::.cpu.data     0.019246                       # mshr miss rate for WriteReq accesses
system.cpu.dcache.WriteReq_mshr_miss_rate::total     0.019246                       # mshr miss rate for WriteReq accesses
system.cpu.dcache.WriteReq_avg_mshr_miss_latency::.cpu.data 42611.422172                       # average WriteReq mshr miss latency
system.cpu.dcache.WriteReq_avg_mshr_miss_latency::total 42611.422172                       # average WriteReq mshr miss latency
system.cpu.dcache.SoftPFReq_hits::.cpu.data          597                       # number of SoftPFReq hits
system.cpu.dcache.SoftPFReq_hits::total           597                       # number of SoftPFReq hits
system.cpu.dcache.SoftPFReq_misses::.cpu.data         7822                       # number of SoftPFReq misses
system.cpu.dcache.SoftPFReq_misses::total         7822                       # number of SoftPFReq misses
system.cpu.dcache.SoftPFReq_accesses::.cpu.data         8419                       # number of SoftPFReq accesses(hits+misses)
system.cpu.dcache.SoftPFReq_accesses::total         8419                       # number of SoftPFReq accesses(hits+misses)
system.cpu.dcache.SoftPFReq_miss_rate::.cpu.data     0.929089                       # miss rate for SoftPFReq accesses
system.cpu.dcache.SoftPFReq_miss_rate::total     0.929089                       # miss rate for SoftPFReq accesses
system.cpu.dcache.SoftPFReq_mshr_misses::.cpu.data         3955                       # number of SoftPFReq MSHR misses
system.cpu.dcache.SoftPFReq_mshr_misses::total         3955                       # number of SoftPFReq MSHR misses
system.cpu.dcache.SoftPFReq_mshr_miss_latency::.cpu.data    299547000                       # number of SoftPFReq MSHR miss cycles
system.cpu.dcache.SoftPFReq_mshr_miss_latency::total    299547000                       # number of SoftPFReq MSHR miss cycles
system.cpu.dcache.SoftPFReq_mshr_miss_rate::.cpu.data     0.469771                       # mshr miss rate for SoftPFReq accesses
system.cpu.dcache.SoftPFReq_mshr_miss_rate::total     0.469771                       # mshr miss rate for SoftPFReq accesses
system.cpu.dcache.SoftPFReq_avg_mshr_miss_latency::.cpu.data 75738.811631                       # average SoftPFReq mshr miss latency
system.cpu.dcache.SoftPFReq_avg_mshr_miss_latency::total 75738.811631                       # average SoftPFReq mshr miss latency
system.cpu.dcache.LoadLockedReq_hits::.cpu.data           38                       # number of LoadLockedReq hits
system.cpu.dcache.LoadLockedReq_hits::total           38                       # number of LoadLockedReq hits
system.cpu.dcache.LoadLockedReq_accesses::.cpu.data           38                       # number of LoadLockedReq accesses(hits+misses)
system.cpu.dcache.LoadLockedReq_accesses::total           38                       # number of LoadLockedReq accesses(hits+misses)
system.cpu.dcache.StoreCondReq_hits::.cpu.data           38                       # number of StoreCondReq hits
system.cpu.dcache.StoreCondReq_hits::total           38                       # number of StoreCondReq hits
system.cpu.dcache.StoreCondReq_accesses::.cpu.data           38                       # number of StoreCondReq accesses(hits+misses)
system.cpu.dcache.StoreCondReq_accesses::total           38                       # number of StoreCondReq accesses(hits+misses)
system.cpu.dcache.tags.pwrStateResidencyTicks::UNDEFINED  79988056500                       # Cumulative time (in ticks) in various power states
system.cpu.dcache.tags.tagsinuse          1005.731518                       # Cycle average of tags in use
system.cpu.dcache.tags.total_refs            52024393                       # Total number of references to valid blocks.
system.cpu.dcache.tags.sampled_refs            432797                       # Sample count of references to valid blocks.
system.cpu.dcache.tags.avg_refs            120.205068                       # Average number of references to valid blocks.
system.cpu.dcache.tags.warmup_cycle            186500                       # Cycle when the warmup percentage was hit.
system.cpu.dcache.tags.occ_blocks::.cpu.data  1005.731518                       # Average occupied blocks per requestor
system.cpu.dcache.tags.occ_percent::.cpu.data     0.982160                       # Average percentage of cache occupancy
system.cpu.dcache.tags.occ_percent::total     0.982160                       # Average percentage of cache occupancy
system.cpu.dcache.tags.occ_task_id_blocks::1024         1024                       # Occupied blocks per task id
system.cpu.dcache.tags.age_task_id_blocks_1024::0          302                       # Occupied blocks per task id
system.cpu.dcache.tags.age_task_id_blocks_1024::1          493                       # Occupied blocks per task id
system.cpu.dcache.tags.age_task_id_blocks_1024::2          226                       # Occupied blocks per task id
system.cpu.dcache.tags.age_task_id_blocks_1024::3            2                       # Occupied blocks per task id
system.cpu.dcache.tags.age_task_id_blocks_1024::4            1                       # Occupied blocks per task id
system.cpu.dcache.tags.occ_task_id_percent::1024            1                       # Percentage of cache occupancy per task id
system.cpu.dcache.tags.tag_accesses         416934973                       # Number of tag accesses
system.cpu.dcache.tags.data_accesses        416934973                       # Number of data accesses
system.cpu.itb.walker.pwrStateResidencyTicks::UNDEFINED  79988056500                       # Cumulative time (in ticks) in various power states
system.cpu.itb.stage2_mmu.stage2_tlb.walker.pwrStateResidencyTicks::UNDEFINED  79988056500                       # Cumulative time (in ticks) in various power states

---------- End Simulation Statistics   ----------
