
---------- Begin Simulation Statistics ----------
final_tick                                85531105500                       # Number of ticks from beginning of simulation (restored from checkpoints and never reset)
host_inst_rate                                 507712                       # Simulator instruction rate (inst/s)
host_mem_usage                                 686780                       # Number of bytes of host memory used
host_op_rate                                   508709                       # Simulator op (including micro ops) rate (op/s)
host_seconds                                   196.96                       # Real time elapsed on the host
host_tick_rate                              434251727                       # Simulator tick rate (ticks/s)
sim_freq                                 1000000000000                       # Frequency of simulated ticks
sim_insts                                   100000001                       # Number of instructions simulated
sim_ops                                     100196363                       # Number of ops (including micro ops) simulated
sim_seconds                                  0.085531                       # Number of seconds simulated
sim_ticks                                 85531105500                       # Number of ticks simulated
system.cpu.branchPred.BTBCorrect                    0                       # Number of correct BTB predictions (this stat may not work properly.
system.cpu.branchPred.BTBHitPct             99.694975                       # BTB Hit Percentage
system.cpu.branchPred.BTBHits                 2095386                       # Number of BTB hits
system.cpu.branchPred.BTBLookups              2101797                       # Number of BTB lookups
system.cpu.branchPred.RASInCorrect                  5                       # Number of incorrect RAS predictions.
system.cpu.branchPred.condIncorrect             81341                       # Number of conditional branches incorrect
system.cpu.branchPred.condPredicted           3727656                       # Number of conditional branches predicted
system.cpu.branchPred.indirectHits                291                       # Number of indirect target hits.
system.cpu.branchPred.indirectLookups             808                       # Number of indirect predictor lookups.
system.cpu.branchPred.indirectMisses              517                       # Number of indirect misses.
system.cpu.branchPred.lookups                 4477723                       # Number of BP lookups
system.cpu.branchPred.usedRAS                   65337                       # Number of times the RAS was used to get a target.
system.cpu.branchPredindirectMispredicted          171                       # Number of mispredicted indirect branches.
system.cpu.committedInsts                   100000001                       # Number of instructions committed
system.cpu.committedOps                     100196363                       # Number of ops (including micro ops) committed
system.cpu.cpi                               1.710622                       # CPI: cycles per instruction
system.cpu.discardedOps                        190641                       # Number of ops (including micro ops) which were discarded before commit
system.cpu.dtb.accesses                             0                       # DTB accesses
system.cpu.dtb.align_faults                         0                       # Number of TLB faults due to alignment restrictions
system.cpu.dtb.domain_faults                        0                       # Number of TLB faults due to domain restrictions
system.cpu.dtb.flush_entries                        0                       # Number of entries that have been flushed from TLB
system.cpu.dtb.flush_tlb                            0                       # Number of times complete TLB was flushed
system.cpu.dtb.flush_tlb_asid                       0                       # Number of times TLB was flushed by ASID
system.cpu.dtb.flush_tlb_mva                        0                       # Number of times TLB was flushed by MVA
system.cpu.dtb.flush_tlb_mva_asid                   0                       # Number of times TLB was flushed by MVA & ASID
system.cpu.dtb.hits                                 0                       # DTB hits
system.cpu.dtb.inst_accesses                        0                       # ITB inst accesses
system.cpu.dtb.inst_hits                            0                       # ITB inst hits
system.cpu.dtb.inst_misses                          0                       # ITB inst misses
system.cpu.dtb.misses                               0                       # DTB misses
system.cpu.dtb.perms_faults                         0                       # Number of TLB faults due to permissions restrictions
system.cpu.dtb.prefetch_faults                      0                       # Number of TLB faults due to prefetch
system.cpu.dtb.read_accesses                        0                       # DTB read accesses
system.cpu.dtb.read_hits                            0                       # DTB read hits
system.cpu.dtb.read_misses                          0                       # DTB read misses
system.cpu.dtb.stage2_mmu.stage2_tlb.accesses            0                       # DTB accesses
system.cpu.dtb.stage2_mmu.stage2_tlb.align_faults            0                       # Number of TLB faults due to alignment restrictions
system.cpu.dtb.stage2_mmu.stage2_tlb.domain_faults            0                       # Number of TLB faults due to domain restrictions
system.cpu.dtb.stage2_mmu.stage2_tlb.flush_entries            0                       # Number of entries that have been flushed from TLB
system.cpu.dtb.stage2_mmu.stage2_tlb.flush_tlb            0                       # Number of times complete TLB was flushed
system.cpu.dtb.stage2_mmu.stage2_tlb.flush_tlb_asid            0                       # Number of times TLB was flushed by ASID
system.cpu.dtb.stage2_mmu.stage2_tlb.flush_tlb_mva            0                       # Number of times TLB was flushed by MVA
system.cpu.dtb.stage2_mmu.stage2_tlb.flush_tlb_mva_asid            0                       # Number of times TLB was flushed by MVA & ASID
system.cpu.dtb.stage2_mmu.stage2_tlb.hits            0                       # DTB hits
system.cpu.dtb.stage2_mmu.stage2_tlb.inst_accesses            0                       # ITB inst accesses
system.cpu.dtb.stage2_mmu.stage2_tlb.inst_hits            0                       # ITB inst hits
system.cpu.dtb.stage2_mmu.stage2_tlb.inst_misses            0                       # ITB inst misses
system.cpu.dtb.stage2_mmu.stage2_tlb.misses            0                       # DTB misses
system.cpu.dtb.stage2_mmu.stage2_tlb.perms_faults            0                       # Number of TLB faults due to permissions restrictions
system.cpu.dtb.stage2_mmu.stage2_tlb.prefetch_faults            0                       # Number of TLB faults due to prefetch
system.cpu.dtb.stage2_mmu.stage2_tlb.read_accesses            0                       # DTB read accesses
system.cpu.dtb.stage2_mmu.stage2_tlb.read_hits            0                       # DTB read hits
system.cpu.dtb.stage2_mmu.stage2_tlb.read_misses            0                       # DTB read misses
system.cpu.dtb.stage2_mmu.stage2_tlb.walker.walkRequestOrigin_Requested::Data            0                       # Table walker requests started/completed, data/inst
system.cpu.dtb.stage2_mmu.stage2_tlb.walker.walkRequestOrigin_Requested::Inst            0                       # Table walker requests started/completed, data/inst
system.cpu.dtb.stage2_mmu.stage2_tlb.walker.walkRequestOrigin_Requested::total            0                       # Table walker requests started/completed, data/inst
system.cpu.dtb.stage2_mmu.stage2_tlb.walker.walkRequestOrigin_Completed::Data            0                       # Table walker requests started/completed, data/inst
system.cpu.dtb.stage2_mmu.stage2_tlb.walker.walkRequestOrigin_Completed::Inst            0                       # Table walker requests started/completed, data/inst
system.cpu.dtb.stage2_mmu.stage2_tlb.walker.walkRequestOrigin_Completed::total            0                       # Table walker requests started/completed, data/inst
system.cpu.dtb.stage2_mmu.stage2_tlb.walker.walkRequestOrigin::total            0                       # Table walker requests started/completed, data/inst
system.cpu.dtb.stage2_mmu.stage2_tlb.walker.walks            0                       # Table walker walks requested
system.cpu.dtb.stage2_mmu.stage2_tlb.write_accesses            0                       # DTB write accesses
system.cpu.dtb.stage2_mmu.stage2_tlb.write_hits            0                       # DTB write hits
system.cpu.dtb.stage2_mmu.stage2_tlb.write_misses            0                       # DTB write misses
system.cpu.dtb.walker.walkRequestOrigin_Requested::Data            0                       # Table walker requests started/completed, data/inst
system.cpu.dtb.walker.walkRequestOrigin_Requested::Inst            0                       # Table walker requests started/completed, data/inst
system.cpu.dtb.walker.walkRequestOrigin_Requested::total            0                       # Table walker requests started/completed, data/inst
system.cpu.dtb.walker.walkRequestOrigin_Completed::Data            0                       # Table walker requests started/completed, data/inst
system.cpu.dtb.walker.walkRequestOrigin_Completed::Inst            0                       # Table walker requests started/completed, data/inst
system.cpu.dtb.walker.walkRequestOrigin_Completed::total            0                       # Table walker requests started/completed, data/inst
system.cpu.dtb.walker.walkRequestOrigin::total            0                       # Table walker requests started/completed, data/inst
system.cpu.dtb.walker.walks                         0                       # Table walker walks requested
system.cpu.dtb.write_accesses                       0                       # DTB write accesses
system.cpu.dtb.write_hits                           0                       # DTB write hits
system.cpu.dtb.write_misses                         0                       # DTB write misses
system.cpu.fetch2.amo_instructions                  0                       # Number of memory atomic instructions successfully decoded
system.cpu.fetch2.fp_instructions                   0                       # Number of floating point instructions successfully decoded
system.cpu.fetch2.int_instructions           42610020                       # Number of integer instructions successfully decoded
system.cpu.fetch2.load_instructions          43402282                       # Number of memory load instructions successfully decoded
system.cpu.fetch2.store_instructions         11001399                       # Number of memory store instructions successfully decoded
system.cpu.fetch2.vec_instructions                  0                       # Number of SIMD instructions successfully decoded
system.cpu.idleCycles                        38305299                       # Total number of cycles that the object has spent stopped
system.cpu.ipc                               0.584583                       # IPC: instructions per cycle
system.cpu.itb.accesses                             0                       # DTB accesses
system.cpu.itb.align_faults                         0                       # Number of TLB faults due to alignment restrictions
system.cpu.itb.domain_faults                        0                       # Number of TLB faults due to domain restrictions
system.cpu.itb.flush_entries                        0                       # Number of entries that have been flushed from TLB
system.cpu.itb.flush_tlb                            0                       # Number of times complete TLB was flushed
system.cpu.itb.flush_tlb_asid                       0                       # Number of times TLB was flushed by ASID
system.cpu.itb.flush_tlb_mva                        0                       # Number of times TLB was flushed by MVA
system.cpu.itb.flush_tlb_mva_asid                   0                       # Number of times TLB was flushed by MVA & ASID
system.cpu.itb.hits                                 0                       # DTB hits
system.cpu.itb.inst_accesses                        0                       # ITB inst accesses
system.cpu.itb.inst_hits                            0                       # ITB inst hits
system.cpu.itb.inst_misses                          0                       # ITB inst misses
system.cpu.itb.misses                               0                       # DTB misses
system.cpu.itb.perms_faults                         0                       # Number of TLB faults due to permissions restrictions
system.cpu.itb.prefetch_faults                      0                       # Number of TLB faults due to prefetch
system.cpu.itb.read_accesses                        0                       # DTB read accesses
system.cpu.itb.read_hits                            0                       # DTB read hits
system.cpu.itb.read_misses                          0                       # DTB read misses
system.cpu.itb.stage2_mmu.stage2_tlb.accesses            0                       # DTB accesses
system.cpu.itb.stage2_mmu.stage2_tlb.align_faults            0                       # Number of TLB faults due to alignment restrictions
system.cpu.itb.stage2_mmu.stage2_tlb.domain_faults            0                       # Number of TLB faults due to domain restrictions
system.cpu.itb.stage2_mmu.stage2_tlb.flush_entries            0                       # Number of entries that have been flushed from TLB
system.cpu.itb.stage2_mmu.stage2_tlb.flush_tlb            0                       # Number of times complete TLB was flushed
system.cpu.itb.stage2_mmu.stage2_tlb.flush_tlb_asid            0                       # Number of times TLB was flushed by ASID
system.cpu.itb.stage2_mmu.stage2_tlb.flush_tlb_mva            0                       # Number of times TLB was flushed by MVA
system.cpu.itb.stage2_mmu.stage2_tlb.flush_tlb_mva_asid            0                       # Number of times TLB was flushed by MVA & ASID
system.cpu.itb.stage2_mmu.stage2_tlb.hits            0                       # DTB hits
system.cpu.itb.stage2_mmu.stage2_tlb.inst_accesses            0                       # ITB inst accesses
system.cpu.itb.stage2_mmu.stage2_tlb.inst_hits            0                       # ITB inst hits
system.cpu.itb.stage2_mmu.stage2_tlb.inst_misses            0                       # ITB inst misses
system.cpu.itb.stage2_mmu.stage2_tlb.misses            0                       # DTB misses
system.cpu.itb.stage2_mmu.stage2_tlb.perms_faults            0                       # Number of TLB faults due to permissions restrictions
system.cpu.itb.stage2_mmu.stage2_tlb.prefetch_faults            0                       # Number of TLB faults due to prefetch
system.cpu.itb.stage2_mmu.stage2_tlb.read_accesses            0                       # DTB read accesses
system.cpu.itb.stage2_mmu.stage2_tlb.read_hits            0                       # DTB read hits
system.cpu.itb.stage2_mmu.stage2_tlb.read_misses            0                       # DTB read misses
system.cpu.itb.stage2_mmu.stage2_tlb.walker.walkRequestOrigin_Requested::Data            0                       # Table walker requests started/completed, data/inst
system.cpu.itb.stage2_mmu.stage2_tlb.walker.walkRequestOrigin_Requested::Inst            0                       # Table walker requests started/completed, data/inst
system.cpu.itb.stage2_mmu.stage2_tlb.walker.walkRequestOrigin_Requested::total            0                       # Table walker requests started/completed, data/inst
system.cpu.itb.stage2_mmu.stage2_tlb.walker.walkRequestOrigin_Completed::Data            0                       # Table walker requests started/completed, data/inst
system.cpu.itb.stage2_mmu.stage2_tlb.walker.walkRequestOrigin_Completed::Inst            0                       # Table walker requests started/completed, data/inst
system.cpu.itb.stage2_mmu.stage2_tlb.walker.walkRequestOrigin_Completed::total            0                       # Table walker requests started/completed, data/inst
system.cpu.itb.stage2_mmu.stage2_tlb.walker.walkRequestOrigin::total            0                       # Table walker requests started/completed, data/inst
system.cpu.itb.stage2_mmu.stage2_tlb.walker.walks            0                       # Table walker walks requested
system.cpu.itb.stage2_mmu.stage2_tlb.write_accesses            0                       # DTB write accesses
system.cpu.itb.stage2_mmu.stage2_tlb.write_hits            0                       # DTB write hits
system.cpu.itb.stage2_mmu.stage2_tlb.write_misses            0                       # DTB write misses
system.cpu.itb.walker.walkRequestOrigin_Requested::Data            0                       # Table walker requests started/completed, data/inst
system.cpu.itb.walker.walkRequestOrigin_Requested::Inst            0                       # Table walker requests started/completed, data/inst
system.cpu.itb.walker.walkRequestOrigin_Requested::total            0                       # Table walker requests started/completed, data/inst
system.cpu.itb.walker.walkRequestOrigin_Completed::Data            0                       # Table walker requests started/completed, data/inst
system.cpu.itb.walker.walkRequestOrigin_Completed::Inst            0                       # Table walker requests started/completed, data/inst
system.cpu.itb.walker.walkRequestOrigin_Completed::total            0                       # Table walker requests started/completed, data/inst
system.cpu.itb.walker.walkRequestOrigin::total            0                       # Table walker requests started/completed, data/inst
system.cpu.itb.walker.walks                         0                       # Table walker walks requested
system.cpu.itb.write_accesses                       0                       # DTB write accesses
system.cpu.itb.write_hits                           0                       # DTB write hits
system.cpu.itb.write_misses                         0                       # DTB write misses
system.cpu.numCycles                        171062211                       # number of cpu cycles simulated
system.cpu.numFetchSuspends                         0                       # Number of times Execute suspended instruction fetching
system.cpu.numWorkItemsCompleted                    0                       # number of work items this cpu completed
system.cpu.numWorkItemsStarted                      0                       # number of work items this cpu started
system.cpu.op_class_0::No_OpClass                   0      0.00%      0.00% # Class of committed instruction
system.cpu.op_class_0::IntAlu                46531400     46.44%     46.44% # Class of committed instruction
system.cpu.op_class_0::IntMult                  20720      0.02%     46.46% # Class of committed instruction
system.cpu.op_class_0::IntDiv                       0      0.00%     46.46% # Class of committed instruction
system.cpu.op_class_0::FloatAdd                     0      0.00%     46.46% # Class of committed instruction
system.cpu.op_class_0::FloatCmp                     0      0.00%     46.46% # Class of committed instruction
system.cpu.op_class_0::FloatCvt                     0      0.00%     46.46% # Class of committed instruction
system.cpu.op_class_0::FloatMult                    0      0.00%     46.46% # Class of committed instruction
system.cpu.op_class_0::FloatMultAcc                 0      0.00%     46.46% # Class of committed instruction
system.cpu.op_class_0::FloatDiv                     0      0.00%     46.46% # Class of committed instruction
system.cpu.op_class_0::FloatMisc                    0      0.00%     46.46% # Class of committed instruction
system.cpu.op_class_0::FloatSqrt                    0      0.00%     46.46% # Class of committed instruction
system.cpu.op_class_0::SimdAdd                      0      0.00%     46.46% # Class of committed instruction
system.cpu.op_class_0::SimdAddAcc                   0      0.00%     46.46% # Class of committed instruction
system.cpu.op_class_0::SimdAlu                      0      0.00%     46.46% # Class of committed instruction
system.cpu.op_class_0::SimdCmp                      0      0.00%     46.46% # Class of committed instruction
system.cpu.op_class_0::SimdCvt                      0      0.00%     46.46% # Class of committed instruction
system.cpu.op_class_0::SimdMisc                     0      0.00%     46.46% # Class of committed instruction
system.cpu.op_class_0::SimdMult                     0      0.00%     46.46% # Class of committed instruction
system.cpu.op_class_0::SimdMultAcc                  0      0.00%     46.46% # Class of committed instruction
system.cpu.op_class_0::SimdShift                    0      0.00%     46.46% # Class of committed instruction
system.cpu.op_class_0::SimdShiftAcc                 0      0.00%     46.46% # Class of committed instruction
system.cpu.op_class_0::SimdDiv                      0      0.00%     46.46% # Class of committed instruction
system.cpu.op_class_0::SimdSqrt                     0      0.00%     46.46% # Class of committed instruction
system.cpu.op_class_0::SimdFloatAdd                 0      0.00%     46.46% # Class of committed instruction
system.cpu.op_class_0::SimdFloatAlu                 0      0.00%     46.46% # Class of committed instruction
system.cpu.op_class_0::SimdFloatCmp                 0      0.00%     46.46% # Class of committed instruction
system.cpu.op_class_0::SimdFloatCvt                 0      0.00%     46.46% # Class of committed instruction
system.cpu.op_class_0::SimdFloatDiv                 0      0.00%     46.46% # Class of committed instruction
system.cpu.op_class_0::SimdFloatMisc               18      0.00%     46.46% # Class of committed instruction
system.cpu.op_class_0::SimdFloatMult                0      0.00%     46.46% # Class of committed instruction
system.cpu.op_class_0::SimdFloatMultAcc             0      0.00%     46.46% # Class of committed instruction
system.cpu.op_class_0::SimdFloatSqrt                0      0.00%     46.46% # Class of committed instruction
system.cpu.op_class_0::SimdReduceAdd                0      0.00%     46.46% # Class of committed instruction
system.cpu.op_class_0::SimdReduceAlu                0      0.00%     46.46% # Class of committed instruction
system.cpu.op_class_0::SimdReduceCmp                0      0.00%     46.46% # Class of committed instruction
system.cpu.op_class_0::SimdFloatReduceAdd            0      0.00%     46.46% # Class of committed instruction
system.cpu.op_class_0::SimdFloatReduceCmp            0      0.00%     46.46% # Class of committed instruction
system.cpu.op_class_0::SimdAes                      0      0.00%     46.46% # Class of committed instruction
system.cpu.op_class_0::SimdAesMix                   0      0.00%     46.46% # Class of committed instruction
system.cpu.op_class_0::SimdSha1Hash                 0      0.00%     46.46% # Class of committed instruction
system.cpu.op_class_0::SimdSha1Hash2                0      0.00%     46.46% # Class of committed instruction
system.cpu.op_class_0::SimdSha256Hash               0      0.00%     46.46% # Class of committed instruction
system.cpu.op_class_0::SimdSha256Hash2              0      0.00%     46.46% # Class of committed instruction
system.cpu.op_class_0::SimdShaSigma2                0      0.00%     46.46% # Class of committed instruction
system.cpu.op_class_0::SimdShaSigma3                0      0.00%     46.46% # Class of committed instruction
system.cpu.op_class_0::SimdPredAlu                  0      0.00%     46.46% # Class of committed instruction
system.cpu.op_class_0::MemRead               42693601     42.61%     89.07% # Class of committed instruction
system.cpu.op_class_0::MemWrite              10950624     10.93%    100.00% # Class of committed instruction
system.cpu.op_class_0::FloatMemRead                 0      0.00%    100.00% # Class of committed instruction
system.cpu.op_class_0::FloatMemWrite                0      0.00%    100.00% # Class of committed instruction
system.cpu.op_class_0::IprAccess                    0      0.00%    100.00% # Class of committed instruction
system.cpu.op_class_0::InstPrefetch                 0      0.00%    100.00% # Class of committed instruction
system.cpu.op_class_0::total                100196363                       # Class of committed instruction
system.cpu.tickCycles                       132756912                       # Number of cycles that the object actually ticked
system.cpu.workload.numSyscalls                    84                       # Number of system calls
system.membus.snoop_filter.hit_multi_requests            0                       # Number of requests hitting in the snoop filter with multiple (>1) holders of the requested data.
system.membus.snoop_filter.hit_multi_snoops            0                       # Number of snoops hitting in the snoop filter with multiple (>1) holders of the requested data.
system.membus.snoop_filter.hit_single_requests       210379                       # Number of requests hitting in the snoop filter with a single holder of the requested data.
system.membus.snoop_filter.hit_single_snoops            0                       # Number of snoops hitting in the snoop filter with a single holder of the requested data.
system.membus.snoop_filter.tot_requests        437386                       # Total number of requests made to the snoop filter.
system.membus.snoop_filter.tot_snoops               0                       # Total number of snoops made to the snoop filter.
system.tol2bus.snoop_filter.hit_multi_requests          121                       # Number of requests hitting in the snoop filter with multiple (>1) holders of the requested data.
system.tol2bus.snoop_filter.hit_multi_snoops            7                       # Number of snoops hitting in the snoop filter with multiple (>1) holders of the requested data.
system.tol2bus.snoop_filter.hit_single_requests       711124                       # Number of requests hitting in the snoop filter with a single holder of the requested data.
system.tol2bus.snoop_filter.hit_single_snoops          586                       # Number of snoops hitting in the snoop filter with a single holder of the requested data.
system.tol2bus.snoop_filter.tot_requests      1423524                       # Total number of requests made to the snoop filter.
system.tol2bus.snoop_filter.tot_snoops            593                       # Total number of snoops made to the snoop filter.
system.membus.pwrStateResidencyTicks::UNDEFINED  85531105500                       # Cumulative time (in ticks) in various power states
system.membus.trans_dist::ReadResp              81949                       # Transaction distribution
system.membus.trans_dist::WritebackDirty       140366                       # Transaction distribution
system.membus.trans_dist::CleanEvict            70007                       # Transaction distribution
system.membus.trans_dist::ReadExReq            145064                       # Transaction distribution
system.membus.trans_dist::ReadExResp           145063                       # Transaction distribution
system.membus.trans_dist::ReadSharedReq         81949                       # Transaction distribution
system.membus.pkt_count_system.l2.mem_side::system.mem_ctrls.port       664398                       # Packet count per connected master and slave (bytes)
system.membus.pkt_count::total                 664398                       # Packet count per connected master and slave (bytes)
system.membus.pkt_size_system.l2.mem_side::system.mem_ctrls.port     23512192                       # Cumulative packet size per connected master and slave (bytes)
system.membus.pkt_size::total                23512192                       # Cumulative packet size per connected master and slave (bytes)
system.membus.snoops                                0                       # Total snoops (count)
system.membus.snoopTraffic                          0                       # Total snoop traffic (bytes)
system.membus.snoop_fanout::samples            227013                       # Request fanout histogram
system.membus.snoop_fanout::mean                    0                       # Request fanout histogram
system.membus.snoop_fanout::stdev                   0                       # Request fanout histogram
system.membus.snoop_fanout::underflows              0      0.00%      0.00% # Request fanout histogram
system.membus.snoop_fanout::0                  227013    100.00%    100.00% # Request fanout histogram
system.membus.snoop_fanout::1                       0      0.00%    100.00% # Request fanout histogram
system.membus.snoop_fanout::overflows               0      0.00%    100.00% # Request fanout histogram
system.membus.snoop_fanout::min_value               0                       # Request fanout histogram
system.membus.snoop_fanout::max_value               0                       # Request fanout histogram
system.membus.snoop_fanout::total              227013                       # Request fanout histogram
system.membus.respLayer1.occupancy         1226516750                       # Layer occupancy (ticks)
system.membus.respLayer1.utilization              1.4                       # Layer utilization (%)
system.membus.reqLayer0.occupancy          1045946000                       # Layer occupancy (ticks)
system.membus.reqLayer0.utilization               1.2                       # Layer utilization (%)
system.tol2bus.pwrStateResidencyTicks::UNDEFINED  85531105500                       # Cumulative time (in ticks) in various power states
system.tol2bus.trans_dist::ReadResp            426056                       # Transaction distribution
system.tol2bus.trans_dist::WritebackDirty       766554                       # Transaction distribution
system.tol2bus.trans_dist::WritebackClean          554                       # Transaction distribution
system.tol2bus.trans_dist::CleanEvict          154960                       # Transaction distribution
system.tol2bus.trans_dist::ReadExReq           286346                       # Transaction distribution
system.tol2bus.trans_dist::ReadExResp          286345                       # Transaction distribution
system.tol2bus.trans_dist::ReadCleanReq           809                       # Transaction distribution
system.tol2bus.trans_dist::ReadSharedReq       425247                       # Transaction distribution
system.tol2bus.pkt_count_system.cpu.icache.mem_side::system.l2.cpu_side         2172                       # Packet count per connected master and slave (bytes)
system.tol2bus.pkt_count_system.cpu.dcache.mem_side::system.l2.cpu_side      2133753                       # Packet count per connected master and slave (bytes)
system.tol2bus.pkt_count::total               2135925                       # Packet count per connected master and slave (bytes)
system.tol2bus.pkt_size_system.cpu.icache.mem_side::system.l2.cpu_side        87232                       # Cumulative packet size per connected master and slave (bytes)
system.tol2bus.pkt_size_system.cpu.dcache.mem_side::system.l2.cpu_side     85617920                       # Cumulative packet size per connected master and slave (bytes)
system.tol2bus.pkt_size::total               85705152                       # Cumulative packet size per connected master and slave (bytes)
system.tol2bus.snoops                          210946                       # Total snoops (count)
system.tol2bus.snoopTraffic                   8983424                       # Total snoop traffic (bytes)
system.tol2bus.snoop_fanout::samples           923348                       # Request fanout histogram
system.tol2bus.snoop_fanout::mean            0.000783                       # Request fanout histogram
system.tol2bus.snoop_fanout::stdev           0.028241                       # Request fanout histogram
system.tol2bus.snoop_fanout::underflows             0      0.00%      0.00% # Request fanout histogram
system.tol2bus.snoop_fanout::0                 922632     99.92%     99.92% # Request fanout histogram
system.tol2bus.snoop_fanout::1                    709      0.08%    100.00% # Request fanout histogram
system.tol2bus.snoop_fanout::2                      7      0.00%    100.00% # Request fanout histogram
system.tol2bus.snoop_fanout::overflows              0      0.00%    100.00% # Request fanout histogram
system.tol2bus.snoop_fanout::min_value              0                       # Request fanout histogram
system.tol2bus.snoop_fanout::max_value              2                       # Request fanout histogram
system.tol2bus.snoop_fanout::total             923348                       # Request fanout histogram
system.tol2bus.reqLayer0.occupancy         1338504000                       # Layer occupancy (ticks)
system.tol2bus.reqLayer0.utilization              1.6                       # Layer utilization (%)
system.tol2bus.respLayer1.occupancy        1067389996                       # Layer occupancy (ticks)
system.tol2bus.respLayer1.utilization             1.2                       # Layer utilization (%)
system.tol2bus.respLayer0.occupancy           1213500                       # Layer occupancy (ticks)
system.tol2bus.respLayer0.utilization             0.0                       # Layer utilization (%)
system.voltage_domain.voltage                       1                       # Voltage in Volts
system.clk_domain.clock                          1000                       # Clock period in ticks
system.l2.pwrStateResidencyTicks::UNDEFINED  85531105500                       # Cumulative time (in ticks) in various power states
system.l2.demand_hits::.cpu.inst                  127                       # number of demand (read+write) hits
system.l2.demand_hits::.cpu.data               485258                       # number of demand (read+write) hits
system.l2.demand_hits::total                   485385                       # number of demand (read+write) hits
system.l2.overall_hits::.cpu.inst                 127                       # number of overall hits
system.l2.overall_hits::.cpu.data              485258                       # number of overall hits
system.l2.overall_hits::total                  485385                       # number of overall hits
system.l2.demand_misses::.cpu.inst                682                       # number of demand (read+write) misses
system.l2.demand_misses::.cpu.data             226335                       # number of demand (read+write) misses
system.l2.demand_misses::total                 227017                       # number of demand (read+write) misses
system.l2.overall_misses::.cpu.inst               682                       # number of overall misses
system.l2.overall_misses::.cpu.data            226335                       # number of overall misses
system.l2.overall_misses::total                227017                       # number of overall misses
system.l2.demand_miss_latency::.cpu.inst     54622000                       # number of demand (read+write) miss cycles
system.l2.demand_miss_latency::.cpu.data  19382680000                       # number of demand (read+write) miss cycles
system.l2.demand_miss_latency::total      19437302000                       # number of demand (read+write) miss cycles
system.l2.overall_miss_latency::.cpu.inst     54622000                       # number of overall miss cycles
system.l2.overall_miss_latency::.cpu.data  19382680000                       # number of overall miss cycles
system.l2.overall_miss_latency::total     19437302000                       # number of overall miss cycles
system.l2.demand_accesses::.cpu.inst              809                       # number of demand (read+write) accesses
system.l2.demand_accesses::.cpu.data           711593                       # number of demand (read+write) accesses
system.l2.demand_accesses::total               712402                       # number of demand (read+write) accesses
system.l2.overall_accesses::.cpu.inst             809                       # number of overall (read+write) accesses
system.l2.overall_accesses::.cpu.data          711593                       # number of overall (read+write) accesses
system.l2.overall_accesses::total              712402                       # number of overall (read+write) accesses
system.l2.demand_miss_rate::.cpu.inst        0.843016                       # miss rate for demand accesses
system.l2.demand_miss_rate::.cpu.data        0.318068                       # miss rate for demand accesses
system.l2.demand_miss_rate::total            0.318664                       # miss rate for demand accesses
system.l2.overall_miss_rate::.cpu.inst       0.843016                       # miss rate for overall accesses
system.l2.overall_miss_rate::.cpu.data       0.318068                       # miss rate for overall accesses
system.l2.overall_miss_rate::total           0.318664                       # miss rate for overall accesses
system.l2.demand_avg_miss_latency::.cpu.inst 80090.909091                       # average overall miss latency
system.l2.demand_avg_miss_latency::.cpu.data 85637.130802                       # average overall miss latency
system.l2.demand_avg_miss_latency::total 85620.468952                       # average overall miss latency
system.l2.overall_avg_miss_latency::.cpu.inst 80090.909091                       # average overall miss latency
system.l2.overall_avg_miss_latency::.cpu.data 85637.130802                       # average overall miss latency
system.l2.overall_avg_miss_latency::total 85620.468952                       # average overall miss latency
system.l2.blocked_cycles::no_mshrs                  0                       # number of cycles access was blocked
system.l2.blocked_cycles::no_targets                0                       # number of cycles access was blocked
system.l2.blocked::no_mshrs                         0                       # number of cycles access was blocked
system.l2.blocked::no_targets                       0                       # number of cycles access was blocked
system.l2.avg_blocked_cycles::no_mshrs            nan                       # average number of cycles each access was blocked
system.l2.avg_blocked_cycles::no_targets          nan                       # average number of cycles each access was blocked
system.l2.writebacks::.writebacks              140366                       # number of writebacks
system.l2.writebacks::total                    140366                       # number of writebacks
system.l2.demand_mshr_hits::.cpu.data               4                       # number of demand (read+write) MSHR hits
system.l2.demand_mshr_hits::total                   4                       # number of demand (read+write) MSHR hits
system.l2.overall_mshr_hits::.cpu.data              4                       # number of overall MSHR hits
system.l2.overall_mshr_hits::total                  4                       # number of overall MSHR hits
system.l2.demand_mshr_misses::.cpu.inst           682                       # number of demand (read+write) MSHR misses
system.l2.demand_mshr_misses::.cpu.data        226331                       # number of demand (read+write) MSHR misses
system.l2.demand_mshr_misses::total            227013                       # number of demand (read+write) MSHR misses
system.l2.overall_mshr_misses::.cpu.inst          682                       # number of overall MSHR misses
system.l2.overall_mshr_misses::.cpu.data       226331                       # number of overall MSHR misses
system.l2.overall_mshr_misses::total           227013                       # number of overall MSHR misses
system.l2.demand_mshr_miss_latency::.cpu.inst     47802000                       # number of demand (read+write) MSHR miss cycles
system.l2.demand_mshr_miss_latency::.cpu.data  17119041000                       # number of demand (read+write) MSHR miss cycles
system.l2.demand_mshr_miss_latency::total  17166843000                       # number of demand (read+write) MSHR miss cycles
system.l2.overall_mshr_miss_latency::.cpu.inst     47802000                       # number of overall MSHR miss cycles
system.l2.overall_mshr_miss_latency::.cpu.data  17119041000                       # number of overall MSHR miss cycles
system.l2.overall_mshr_miss_latency::total  17166843000                       # number of overall MSHR miss cycles
system.l2.demand_mshr_miss_rate::.cpu.inst     0.843016                       # mshr miss rate for demand accesses
system.l2.demand_mshr_miss_rate::.cpu.data     0.318062                       # mshr miss rate for demand accesses
system.l2.demand_mshr_miss_rate::total       0.318659                       # mshr miss rate for demand accesses
system.l2.overall_mshr_miss_rate::.cpu.inst     0.843016                       # mshr miss rate for overall accesses
system.l2.overall_mshr_miss_rate::.cpu.data     0.318062                       # mshr miss rate for overall accesses
system.l2.overall_mshr_miss_rate::total      0.318659                       # mshr miss rate for overall accesses
system.l2.demand_avg_mshr_miss_latency::.cpu.inst 70090.909091                       # average overall mshr miss latency
system.l2.demand_avg_mshr_miss_latency::.cpu.data 75637.190663                       # average overall mshr miss latency
system.l2.demand_avg_mshr_miss_latency::total 75620.528340                       # average overall mshr miss latency
system.l2.overall_avg_mshr_miss_latency::.cpu.inst 70090.909091                       # average overall mshr miss latency
system.l2.overall_avg_mshr_miss_latency::.cpu.data 75637.190663                       # average overall mshr miss latency
system.l2.overall_avg_mshr_miss_latency::total 75620.528340                       # average overall mshr miss latency
system.l2.replacements                         210946                       # number of replacements
system.l2.WritebackDirty_hits::.writebacks       626188                       # number of WritebackDirty hits
system.l2.WritebackDirty_hits::total           626188                       # number of WritebackDirty hits
system.l2.WritebackDirty_accesses::.writebacks       626188                       # number of WritebackDirty accesses(hits+misses)
system.l2.WritebackDirty_accesses::total       626188                       # number of WritebackDirty accesses(hits+misses)
system.l2.WritebackClean_hits::.writebacks          536                       # number of WritebackClean hits
system.l2.WritebackClean_hits::total              536                       # number of WritebackClean hits
system.l2.WritebackClean_accesses::.writebacks          536                       # number of WritebackClean accesses(hits+misses)
system.l2.WritebackClean_accesses::total          536                       # number of WritebackClean accesses(hits+misses)
system.l2.CleanEvict_mshr_misses::.writebacks           20                       # number of CleanEvict MSHR misses
system.l2.CleanEvict_mshr_misses::total            20                       # number of CleanEvict MSHR misses
system.l2.CleanEvict_mshr_miss_rate::.writebacks          inf                       # mshr miss rate for CleanEvict accesses
system.l2.CleanEvict_mshr_miss_rate::total          inf                       # mshr miss rate for CleanEvict accesses
system.l2.ReadExReq_hits::.cpu.data            141282                       # number of ReadExReq hits
system.l2.ReadExReq_hits::total                141282                       # number of ReadExReq hits
system.l2.ReadExReq_misses::.cpu.data          145064                       # number of ReadExReq misses
system.l2.ReadExReq_misses::total              145064                       # number of ReadExReq misses
system.l2.ReadExReq_miss_latency::.cpu.data  12774204000                       # number of ReadExReq miss cycles
system.l2.ReadExReq_miss_latency::total   12774204000                       # number of ReadExReq miss cycles
system.l2.ReadExReq_accesses::.cpu.data        286346                       # number of ReadExReq accesses(hits+misses)
system.l2.ReadExReq_accesses::total            286346                       # number of ReadExReq accesses(hits+misses)
system.l2.ReadExReq_miss_rate::.cpu.data     0.506604                       # miss rate for ReadExReq accesses
system.l2.ReadExReq_miss_rate::total         0.506604                       # miss rate for ReadExReq accesses
system.l2.ReadExReq_avg_miss_latency::.cpu.data 88059.091160                       # average ReadExReq miss latency
system.l2.ReadExReq_avg_miss_latency::total 88059.091160                       # average ReadExReq miss latency
system.l2.ReadExReq_mshr_misses::.cpu.data       145064                       # number of ReadExReq MSHR misses
system.l2.ReadExReq_mshr_misses::total         145064                       # number of ReadExReq MSHR misses
system.l2.ReadExReq_mshr_miss_latency::.cpu.data  11323574000                       # number of ReadExReq MSHR miss cycles
system.l2.ReadExReq_mshr_miss_latency::total  11323574000                       # number of ReadExReq MSHR miss cycles
system.l2.ReadExReq_mshr_miss_rate::.cpu.data     0.506604                       # mshr miss rate for ReadExReq accesses
system.l2.ReadExReq_mshr_miss_rate::total     0.506604                       # mshr miss rate for ReadExReq accesses
system.l2.ReadExReq_avg_mshr_miss_latency::.cpu.data 78059.160095                       # average ReadExReq mshr miss latency
system.l2.ReadExReq_avg_mshr_miss_latency::total 78059.160095                       # average ReadExReq mshr miss latency
system.l2.ReadCleanReq_hits::.cpu.inst            127                       # number of ReadCleanReq hits
system.l2.ReadCleanReq_hits::total                127                       # number of ReadCleanReq hits
system.l2.ReadCleanReq_misses::.cpu.inst          682                       # number of ReadCleanReq misses
system.l2.ReadCleanReq_misses::total              682                       # number of ReadCleanReq misses
system.l2.ReadCleanReq_miss_latency::.cpu.inst     54622000                       # number of ReadCleanReq miss cycles
system.l2.ReadCleanReq_miss_latency::total     54622000                       # number of ReadCleanReq miss cycles
system.l2.ReadCleanReq_accesses::.cpu.inst          809                       # number of ReadCleanReq accesses(hits+misses)
system.l2.ReadCleanReq_accesses::total            809                       # number of ReadCleanReq accesses(hits+misses)
system.l2.ReadCleanReq_miss_rate::.cpu.inst     0.843016                       # miss rate for ReadCleanReq accesses
system.l2.ReadCleanReq_miss_rate::total      0.843016                       # miss rate for ReadCleanReq accesses
system.l2.ReadCleanReq_avg_miss_latency::.cpu.inst 80090.909091                       # average ReadCleanReq miss latency
system.l2.ReadCleanReq_avg_miss_latency::total 80090.909091                       # average ReadCleanReq miss latency
system.l2.ReadCleanReq_mshr_misses::.cpu.inst          682                       # number of ReadCleanReq MSHR misses
system.l2.ReadCleanReq_mshr_misses::total          682                       # number of ReadCleanReq MSHR misses
system.l2.ReadCleanReq_mshr_miss_latency::.cpu.inst     47802000                       # number of ReadCleanReq MSHR miss cycles
system.l2.ReadCleanReq_mshr_miss_latency::total     47802000                       # number of ReadCleanReq MSHR miss cycles
system.l2.ReadCleanReq_mshr_miss_rate::.cpu.inst     0.843016                       # mshr miss rate for ReadCleanReq accesses
system.l2.ReadCleanReq_mshr_miss_rate::total     0.843016                       # mshr miss rate for ReadCleanReq accesses
system.l2.ReadCleanReq_avg_mshr_miss_latency::.cpu.inst 70090.909091                       # average ReadCleanReq mshr miss latency
system.l2.ReadCleanReq_avg_mshr_miss_latency::total 70090.909091                       # average ReadCleanReq mshr miss latency
system.l2.ReadSharedReq_hits::.cpu.data        343976                       # number of ReadSharedReq hits
system.l2.ReadSharedReq_hits::total            343976                       # number of ReadSharedReq hits
system.l2.ReadSharedReq_misses::.cpu.data        81271                       # number of ReadSharedReq misses
system.l2.ReadSharedReq_misses::total           81271                       # number of ReadSharedReq misses
system.l2.ReadSharedReq_miss_latency::.cpu.data   6608476000                       # number of ReadSharedReq miss cycles
system.l2.ReadSharedReq_miss_latency::total   6608476000                       # number of ReadSharedReq miss cycles
system.l2.ReadSharedReq_accesses::.cpu.data       425247                       # number of ReadSharedReq accesses(hits+misses)
system.l2.ReadSharedReq_accesses::total        425247                       # number of ReadSharedReq accesses(hits+misses)
system.l2.ReadSharedReq_miss_rate::.cpu.data     0.191115                       # miss rate for ReadSharedReq accesses
system.l2.ReadSharedReq_miss_rate::total     0.191115                       # miss rate for ReadSharedReq accesses
system.l2.ReadSharedReq_avg_miss_latency::.cpu.data 81314.072670                       # average ReadSharedReq miss latency
system.l2.ReadSharedReq_avg_miss_latency::total 81314.072670                       # average ReadSharedReq miss latency
system.l2.ReadSharedReq_mshr_hits::.cpu.data            4                       # number of ReadSharedReq MSHR hits
system.l2.ReadSharedReq_mshr_hits::total            4                       # number of ReadSharedReq MSHR hits
system.l2.ReadSharedReq_mshr_misses::.cpu.data        81267                       # number of ReadSharedReq MSHR misses
system.l2.ReadSharedReq_mshr_misses::total        81267                       # number of ReadSharedReq MSHR misses
system.l2.ReadSharedReq_mshr_miss_latency::.cpu.data   5795467000                       # number of ReadSharedReq MSHR miss cycles
system.l2.ReadSharedReq_mshr_miss_latency::total   5795467000                       # number of ReadSharedReq MSHR miss cycles
system.l2.ReadSharedReq_mshr_miss_rate::.cpu.data     0.191105                       # mshr miss rate for ReadSharedReq accesses
system.l2.ReadSharedReq_mshr_miss_rate::total     0.191105                       # mshr miss rate for ReadSharedReq accesses
system.l2.ReadSharedReq_avg_mshr_miss_latency::.cpu.data 71313.903552                       # average ReadSharedReq mshr miss latency
system.l2.ReadSharedReq_avg_mshr_miss_latency::total 71313.903552                       # average ReadSharedReq mshr miss latency
system.l2.tags.pwrStateResidencyTicks::UNDEFINED  85531105500                       # Cumulative time (in ticks) in various power states
system.l2.tags.tagsinuse                 16034.665333                       # Cycle average of tags in use
system.l2.tags.total_refs                     1423378                       # Total number of references to valid blocks.
system.l2.tags.sampled_refs                    227330                       # Sample count of references to valid blocks.
system.l2.tags.avg_refs                      6.261285                       # Average number of references to valid blocks.
system.l2.tags.warmup_cycle                     77000                       # Cycle when the warmup percentage was hit.
system.l2.tags.occ_blocks::.writebacks      51.914694                       # Average occupied blocks per requestor
system.l2.tags.occ_blocks::.cpu.inst        59.118858                       # Average occupied blocks per requestor
system.l2.tags.occ_blocks::.cpu.data     15923.631782                       # Average occupied blocks per requestor
system.l2.tags.occ_percent::.writebacks      0.003169                       # Average percentage of cache occupancy
system.l2.tags.occ_percent::.cpu.inst        0.003608                       # Average percentage of cache occupancy
system.l2.tags.occ_percent::.cpu.data        0.971901                       # Average percentage of cache occupancy
system.l2.tags.occ_percent::total            0.978678                       # Average percentage of cache occupancy
system.l2.tags.occ_task_id_blocks::1024         16384                       # Occupied blocks per task id
system.l2.tags.age_task_id_blocks_1024::0          118                       # Occupied blocks per task id
system.l2.tags.age_task_id_blocks_1024::1          168                       # Occupied blocks per task id
system.l2.tags.age_task_id_blocks_1024::2         2572                       # Occupied blocks per task id
system.l2.tags.age_task_id_blocks_1024::3        11244                       # Occupied blocks per task id
system.l2.tags.age_task_id_blocks_1024::4         2282                       # Occupied blocks per task id
system.l2.tags.occ_task_id_percent::1024            1                       # Percentage of cache occupancy per task id
system.l2.tags.tag_accesses                  11614554                       # Number of tag accesses
system.l2.tags.data_accesses                 11614554                       # Number of data accesses
system.cpu_voltage_domain.voltage                   1                       # Voltage in Volts
system.mem_ctrls.pwrStateResidencyTicks::UNDEFINED  85531105500                       # Cumulative time (in ticks) in various power states
system.mem_ctrls.bytes_read::.cpu.inst          43648                       # Number of bytes read from this memory
system.mem_ctrls.bytes_read::.cpu.data       14485184                       # Number of bytes read from this memory
system.mem_ctrls.bytes_read::total           14528832                       # Number of bytes read from this memory
system.mem_ctrls.bytes_inst_read::.cpu.inst        43648                       # Number of instructions bytes read from this memory
system.mem_ctrls.bytes_inst_read::total         43648                       # Number of instructions bytes read from this memory
system.mem_ctrls.bytes_written::.writebacks      8983424                       # Number of bytes written to this memory
system.mem_ctrls.bytes_written::total         8983424                       # Number of bytes written to this memory
system.mem_ctrls.num_reads::.cpu.inst             682                       # Number of read requests responded to by this memory
system.mem_ctrls.num_reads::.cpu.data          226331                       # Number of read requests responded to by this memory
system.mem_ctrls.num_reads::total              227013                       # Number of read requests responded to by this memory
system.mem_ctrls.num_writes::.writebacks       140366                       # Number of write requests responded to by this memory
system.mem_ctrls.num_writes::total             140366                       # Number of write requests responded to by this memory
system.mem_ctrls.bw_read::.cpu.inst            510317                       # Total read bandwidth from this memory (bytes/s)
system.mem_ctrls.bw_read::.cpu.data         169355744                       # Total read bandwidth from this memory (bytes/s)
system.mem_ctrls.bw_read::total             169866061                       # Total read bandwidth from this memory (bytes/s)
system.mem_ctrls.bw_inst_read::.cpu.inst       510317                       # Instruction read bandwidth from this memory (bytes/s)
system.mem_ctrls.bw_inst_read::total           510317                       # Instruction read bandwidth from this memory (bytes/s)
system.mem_ctrls.bw_write::.writebacks      105031076                       # Write bandwidth from this memory (bytes/s)
system.mem_ctrls.bw_write::total            105031076                       # Write bandwidth from this memory (bytes/s)
system.mem_ctrls.bw_total::.writebacks      105031076                       # Total bandwidth to/from this memory (bytes/s)
system.mem_ctrls.bw_total::.cpu.inst           510317                       # Total bandwidth to/from this memory (bytes/s)
system.mem_ctrls.bw_total::.cpu.data        169355744                       # Total bandwidth to/from this memory (bytes/s)
system.mem_ctrls.bw_total::total            274897137                       # Total bandwidth to/from this memory (bytes/s)
system.mem_ctrls.avgPriority_.writebacks::samples    140366.00                       # Average QoS priority value for accepted requests
system.mem_ctrls.avgPriority_.cpu.inst::samples       682.00                       # Average QoS priority value for accepted requests
system.mem_ctrls.avgPriority_.cpu.data::samples    226172.00                       # Average QoS priority value for accepted requests
system.mem_ctrls.priorityMinLatency      0.000000018750                       # per QoS priority minimum request to response latency (s)
system.mem_ctrls.priorityMaxLatency      0.008328792500                       # per QoS priority maximum request to response latency (s)
system.mem_ctrls.numReadWriteTurnArounds         8363                       # Number of turnarounds from READ to WRITE
system.mem_ctrls.numWriteReadTurnArounds         8363                       # Number of turnarounds from WRITE to READ
system.mem_ctrls.numStayReadState              604600                       # Number of times bus staying in READ state
system.mem_ctrls.numStayWriteState             132132                       # Number of times bus staying in WRITE state
system.mem_ctrls.readReqs                      227013                       # Number of read requests accepted
system.mem_ctrls.writeReqs                     140366                       # Number of write requests accepted
system.mem_ctrls.readBursts                    227013                       # Number of DRAM read bursts, including those serviced by the write queue
system.mem_ctrls.writeBursts                   140366                       # Number of DRAM write bursts, including those merged in the write queue
system.mem_ctrls.servicedByWrQ                    159                       # Number of DRAM read bursts serviced by the write queue
system.mem_ctrls.mergedWrBursts                     0                       # Number of DRAM write bursts merged with an existing one
system.mem_ctrls.neitherReadNorWriteReqs            0                       # Number of requests that are neither read nor write
system.mem_ctrls.perBankRdBursts::0             14544                       # Per bank write bursts
system.mem_ctrls.perBankRdBursts::1             14226                       # Per bank write bursts
system.mem_ctrls.perBankRdBursts::2             14433                       # Per bank write bursts
system.mem_ctrls.perBankRdBursts::3             14321                       # Per bank write bursts
system.mem_ctrls.perBankRdBursts::4             14460                       # Per bank write bursts
system.mem_ctrls.perBankRdBursts::5             14354                       # Per bank write bursts
system.mem_ctrls.perBankRdBursts::6             13798                       # Per bank write bursts
system.mem_ctrls.perBankRdBursts::7             14033                       # Per bank write bursts
system.mem_ctrls.perBankRdBursts::8             13950                       # Per bank write bursts
system.mem_ctrls.perBankRdBursts::9             14041                       # Per bank write bursts
system.mem_ctrls.perBankRdBursts::10            13898                       # Per bank write bursts
system.mem_ctrls.perBankRdBursts::11            13698                       # Per bank write bursts
system.mem_ctrls.perBankRdBursts::12            14204                       # Per bank write bursts
system.mem_ctrls.perBankRdBursts::13            14438                       # Per bank write bursts
system.mem_ctrls.perBankRdBursts::14            14145                       # Per bank write bursts
system.mem_ctrls.perBankRdBursts::15            14311                       # Per bank write bursts
system.mem_ctrls.perBankWrBursts::0              8912                       # Per bank write bursts
system.mem_ctrls.perBankWrBursts::1              8667                       # Per bank write bursts
system.mem_ctrls.perBankWrBursts::2              8873                       # Per bank write bursts
system.mem_ctrls.perBankWrBursts::3              8905                       # Per bank write bursts
system.mem_ctrls.perBankWrBursts::4              9191                       # Per bank write bursts
system.mem_ctrls.perBankWrBursts::5              9104                       # Per bank write bursts
system.mem_ctrls.perBankWrBursts::6              8512                       # Per bank write bursts
system.mem_ctrls.perBankWrBursts::7              8617                       # Per bank write bursts
system.mem_ctrls.perBankWrBursts::8              8520                       # Per bank write bursts
system.mem_ctrls.perBankWrBursts::9              8684                       # Per bank write bursts
system.mem_ctrls.perBankWrBursts::10             8610                       # Per bank write bursts
system.mem_ctrls.perBankWrBursts::11             8473                       # Per bank write bursts
system.mem_ctrls.perBankWrBursts::12             8780                       # Per bank write bursts
system.mem_ctrls.perBankWrBursts::13             8938                       # Per bank write bursts
system.mem_ctrls.perBankWrBursts::14             8693                       # Per bank write bursts
system.mem_ctrls.perBankWrBursts::15             8857                       # Per bank write bursts
system.mem_ctrls.avgRdQLen                       1.08                       # Average read queue length when enqueuing
system.mem_ctrls.avgWrQLen                      24.71                       # Average write queue length when enqueuing
system.mem_ctrls.totQLat                   3548680250                       # Total ticks spent queuing
system.mem_ctrls.totBusLat                 1134270000                       # Total ticks spent in databus transfers
system.mem_ctrls.totMemAccLat              7802192750                       # Total ticks spent from burst creation until serviced by the DRAM
system.mem_ctrls.avgQLat                     15643.01                       # Average queueing delay per DRAM burst
system.mem_ctrls.avgBusLat                    5000.00                       # Average bus latency per DRAM burst
system.mem_ctrls.avgMemAccLat                34393.01                       # Average memory access latency per DRAM burst
system.mem_ctrls.numRdRetry                         0                       # Number of times read queue was full causing retry
system.mem_ctrls.numWrRetry                         0                       # Number of times write queue was full causing retry
system.mem_ctrls.readRowHits                   144054                       # Number of row buffer hits during reads
system.mem_ctrls.writeRowHits                   84483                       # Number of row buffer hits during writes
system.mem_ctrls.readRowHitRate                 63.50                       # Row buffer hit rate for reads
system.mem_ctrls.writeRowHitRate                60.19                       # Row buffer hit rate for writes
system.mem_ctrls.readPktSize::0                     0                       # Read request sizes (log2)
system.mem_ctrls.readPktSize::1                     0                       # Read request sizes (log2)
system.mem_ctrls.readPktSize::2                     0                       # Read request sizes (log2)
system.mem_ctrls.readPktSize::3                     0                       # Read request sizes (log2)
system.mem_ctrls.readPktSize::4                     0                       # Read request sizes (log2)
system.mem_ctrls.readPktSize::5                     0                       # Read request sizes (log2)
system.mem_ctrls.readPktSize::6                227013                       # Read request sizes (log2)
system.mem_ctrls.writePktSize::0                    0                       # Write request sizes (log2)
system.mem_ctrls.writePktSize::1                    0                       # Write request sizes (log2)
system.mem_ctrls.writePktSize::2                    0                       # Write request sizes (log2)
system.mem_ctrls.writePktSize::3                    0                       # Write request sizes (log2)
system.mem_ctrls.writePktSize::4                    0                       # Write request sizes (log2)
system.mem_ctrls.writePktSize::5                    0                       # Write request sizes (log2)
system.mem_ctrls.writePktSize::6               140366                       # Write request sizes (log2)
system.mem_ctrls.rdQLenPdf::0                  164636                       # What read queue length does an incoming req see
system.mem_ctrls.rdQLenPdf::1                   59309                       # What read queue length does an incoming req see
system.mem_ctrls.rdQLenPdf::2                    2578                       # What read queue length does an incoming req see
system.mem_ctrls.rdQLenPdf::3                     330                       # What read queue length does an incoming req see
system.mem_ctrls.rdQLenPdf::4                       1                       # What read queue length does an incoming req see
system.mem_ctrls.rdQLenPdf::5                       0                       # What read queue length does an incoming req see
system.mem_ctrls.rdQLenPdf::6                       0                       # What read queue length does an incoming req see
system.mem_ctrls.rdQLenPdf::7                       0                       # What read queue length does an incoming req see
system.mem_ctrls.rdQLenPdf::8                       0                       # What read queue length does an incoming req see
system.mem_ctrls.rdQLenPdf::9                       0                       # What read queue length does an incoming req see
system.mem_ctrls.rdQLenPdf::10                      0                       # What read queue length does an incoming req see
system.mem_ctrls.rdQLenPdf::11                      0                       # What read queue length does an incoming req see
system.mem_ctrls.rdQLenPdf::12                      0                       # What read queue length does an incoming req see
system.mem_ctrls.rdQLenPdf::13                      0                       # What read queue length does an incoming req see
system.mem_ctrls.rdQLenPdf::14                      0                       # What read queue length does an incoming req see
system.mem_ctrls.rdQLenPdf::15                      0                       # What read queue length does an incoming req see
system.mem_ctrls.rdQLenPdf::16                      0                       # What read queue length does an incoming req see
system.mem_ctrls.rdQLenPdf::17                      0                       # What read queue length does an incoming req see
system.mem_ctrls.rdQLenPdf::18                      0                       # What read queue length does an incoming req see
system.mem_ctrls.rdQLenPdf::19                      0                       # What read queue length does an incoming req see
system.mem_ctrls.rdQLenPdf::20                      0                       # What read queue length does an incoming req see
system.mem_ctrls.rdQLenPdf::21                      0                       # What read queue length does an incoming req see
system.mem_ctrls.rdQLenPdf::22                      0                       # What read queue length does an incoming req see
system.mem_ctrls.rdQLenPdf::23                      0                       # What read queue length does an incoming req see
system.mem_ctrls.rdQLenPdf::24                      0                       # What read queue length does an incoming req see
system.mem_ctrls.rdQLenPdf::25                      0                       # What read queue length does an incoming req see
system.mem_ctrls.rdQLenPdf::26                      0                       # What read queue length does an incoming req see
system.mem_ctrls.rdQLenPdf::27                      0                       # What read queue length does an incoming req see
system.mem_ctrls.rdQLenPdf::28                      0                       # What read queue length does an incoming req see
system.mem_ctrls.rdQLenPdf::29                      0                       # What read queue length does an incoming req see
system.mem_ctrls.rdQLenPdf::30                      0                       # What read queue length does an incoming req see
system.mem_ctrls.rdQLenPdf::31                      0                       # What read queue length does an incoming req see
system.mem_ctrls.wrQLenPdf::0                       1                       # What write queue length does an incoming req see
system.mem_ctrls.wrQLenPdf::1                       1                       # What write queue length does an incoming req see
system.mem_ctrls.wrQLenPdf::2                       1                       # What write queue length does an incoming req see
system.mem_ctrls.wrQLenPdf::3                       1                       # What write queue length does an incoming req see
system.mem_ctrls.wrQLenPdf::4                       1                       # What write queue length does an incoming req see
system.mem_ctrls.wrQLenPdf::5                       1                       # What write queue length does an incoming req see
system.mem_ctrls.wrQLenPdf::6                       1                       # What write queue length does an incoming req see
system.mem_ctrls.wrQLenPdf::7                       1                       # What write queue length does an incoming req see
system.mem_ctrls.wrQLenPdf::8                       1                       # What write queue length does an incoming req see
system.mem_ctrls.wrQLenPdf::9                       1                       # What write queue length does an incoming req see
system.mem_ctrls.wrQLenPdf::10                      1                       # What write queue length does an incoming req see
system.mem_ctrls.wrQLenPdf::11                      1                       # What write queue length does an incoming req see
system.mem_ctrls.wrQLenPdf::12                      1                       # What write queue length does an incoming req see
system.mem_ctrls.wrQLenPdf::13                      1                       # What write queue length does an incoming req see
system.mem_ctrls.wrQLenPdf::14                      1                       # What write queue length does an incoming req see
system.mem_ctrls.wrQLenPdf::15                   3100                       # What write queue length does an incoming req see
system.mem_ctrls.wrQLenPdf::16                   3150                       # What write queue length does an incoming req see
system.mem_ctrls.wrQLenPdf::17                   7502                       # What write queue length does an incoming req see
system.mem_ctrls.wrQLenPdf::18                   8487                       # What write queue length does an incoming req see
system.mem_ctrls.wrQLenPdf::19                   8415                       # What write queue length does an incoming req see
system.mem_ctrls.wrQLenPdf::20                   8624                       # What write queue length does an incoming req see
system.mem_ctrls.wrQLenPdf::21                   8414                       # What write queue length does an incoming req see
system.mem_ctrls.wrQLenPdf::22                   8422                       # What write queue length does an incoming req see
system.mem_ctrls.wrQLenPdf::23                   8431                       # What write queue length does an incoming req see
system.mem_ctrls.wrQLenPdf::24                   8476                       # What write queue length does an incoming req see
system.mem_ctrls.wrQLenPdf::25                   8463                       # What write queue length does an incoming req see
system.mem_ctrls.wrQLenPdf::26                   8433                       # What write queue length does an incoming req see
system.mem_ctrls.wrQLenPdf::27                   8400                       # What write queue length does an incoming req see
system.mem_ctrls.wrQLenPdf::28                   8508                       # What write queue length does an incoming req see
system.mem_ctrls.wrQLenPdf::29                   8416                       # What write queue length does an incoming req see
system.mem_ctrls.wrQLenPdf::30                   8372                       # What write queue length does an incoming req see
system.mem_ctrls.wrQLenPdf::31                   8366                       # What write queue length does an incoming req see
system.mem_ctrls.wrQLenPdf::32                   8364                       # What write queue length does an incoming req see
system.mem_ctrls.wrQLenPdf::33                      8                       # What write queue length does an incoming req see
system.mem_ctrls.wrQLenPdf::34                      0                       # What write queue length does an incoming req see
system.mem_ctrls.wrQLenPdf::35                      0                       # What write queue length does an incoming req see
system.mem_ctrls.wrQLenPdf::36                      0                       # What write queue length does an incoming req see
system.mem_ctrls.wrQLenPdf::37                      0                       # What write queue length does an incoming req see
system.mem_ctrls.wrQLenPdf::38                      0                       # What write queue length does an incoming req see
system.mem_ctrls.wrQLenPdf::39                      0                       # What write queue length does an incoming req see
system.mem_ctrls.wrQLenPdf::40                      0                       # What write queue length does an incoming req see
system.mem_ctrls.wrQLenPdf::41                      0                       # What write queue length does an incoming req see
system.mem_ctrls.wrQLenPdf::42                      0                       # What write queue length does an incoming req see
system.mem_ctrls.wrQLenPdf::43                      0                       # What write queue length does an incoming req see
system.mem_ctrls.wrQLenPdf::44                      0                       # What write queue length does an incoming req see
system.mem_ctrls.wrQLenPdf::45                      0                       # What write queue length does an incoming req see
system.mem_ctrls.wrQLenPdf::46                      0                       # What write queue length does an incoming req see
system.mem_ctrls.wrQLenPdf::47                      0                       # What write queue length does an incoming req see
system.mem_ctrls.wrQLenPdf::48                      0                       # What write queue length does an incoming req see
system.mem_ctrls.wrQLenPdf::49                      0                       # What write queue length does an incoming req see
system.mem_ctrls.wrQLenPdf::50                      0                       # What write queue length does an incoming req see
system.mem_ctrls.wrQLenPdf::51                      0                       # What write queue length does an incoming req see
system.mem_ctrls.wrQLenPdf::52                      0                       # What write queue length does an incoming req see
system.mem_ctrls.wrQLenPdf::53                      0                       # What write queue length does an incoming req see
system.mem_ctrls.wrQLenPdf::54                      0                       # What write queue length does an incoming req see
system.mem_ctrls.wrQLenPdf::55                      0                       # What write queue length does an incoming req see
system.mem_ctrls.wrQLenPdf::56                      0                       # What write queue length does an incoming req see
system.mem_ctrls.wrQLenPdf::57                      0                       # What write queue length does an incoming req see
system.mem_ctrls.wrQLenPdf::58                      0                       # What write queue length does an incoming req see
system.mem_ctrls.wrQLenPdf::59                      0                       # What write queue length does an incoming req see
system.mem_ctrls.wrQLenPdf::60                      0                       # What write queue length does an incoming req see
system.mem_ctrls.wrQLenPdf::61                      0                       # What write queue length does an incoming req see
system.mem_ctrls.wrQLenPdf::62                      0                       # What write queue length does an incoming req see
system.mem_ctrls.wrQLenPdf::63                      0                       # What write queue length does an incoming req see
system.mem_ctrls.bytesPerActivate::samples       138640                       # Bytes accessed per row activation
system.mem_ctrls.bytesPerActivate::mean    169.497980                       # Bytes accessed per row activation
system.mem_ctrls.bytesPerActivate::gmean   102.741472                       # Bytes accessed per row activation
system.mem_ctrls.bytesPerActivate::stdev   236.993471                       # Bytes accessed per row activation
system.mem_ctrls.bytesPerActivate::0-127        96296     69.46%     69.46% # Bytes accessed per row activation
system.mem_ctrls.bytesPerActivate::128-255        19383     13.98%     83.44% # Bytes accessed per row activation
system.mem_ctrls.bytesPerActivate::256-383         3552      2.56%     86.00% # Bytes accessed per row activation
system.mem_ctrls.bytesPerActivate::384-511         1655      1.19%     87.19% # Bytes accessed per row activation
system.mem_ctrls.bytesPerActivate::512-639         9654      6.96%     94.16% # Bytes accessed per row activation
system.mem_ctrls.bytesPerActivate::640-767          658      0.47%     94.63% # Bytes accessed per row activation
system.mem_ctrls.bytesPerActivate::768-895          499      0.36%     94.99% # Bytes accessed per row activation
system.mem_ctrls.bytesPerActivate::896-1023          510      0.37%     95.36% # Bytes accessed per row activation
system.mem_ctrls.bytesPerActivate::1024-1151         6433      4.64%    100.00% # Bytes accessed per row activation
system.mem_ctrls.bytesPerActivate::total       138640                       # Bytes accessed per row activation
system.mem_ctrls.rdPerTurnAround::samples         8363                       # Reads before turning the bus around for writes
system.mem_ctrls.rdPerTurnAround::mean      27.123759                       # Reads before turning the bus around for writes
system.mem_ctrls.rdPerTurnAround::gmean     23.046428                       # Reads before turning the bus around for writes
system.mem_ctrls.rdPerTurnAround::stdev     50.046934                       # Reads before turning the bus around for writes
system.mem_ctrls.rdPerTurnAround::0-127          8265     98.83%     98.83% # Reads before turning the bus around for writes
system.mem_ctrls.rdPerTurnAround::128-255           22      0.26%     99.09% # Reads before turning the bus around for writes
system.mem_ctrls.rdPerTurnAround::256-383           65      0.78%     99.87% # Reads before turning the bus around for writes
system.mem_ctrls.rdPerTurnAround::384-511            5      0.06%     99.93% # Reads before turning the bus around for writes
system.mem_ctrls.rdPerTurnAround::512-639            1      0.01%     99.94% # Reads before turning the bus around for writes
[...]
system.cpu.icache.ReadReq_avg_miss_latency::total 71694.684796                       # average ReadReq miss latency
system.cpu.icache.ReadReq_mshr_misses::.cpu.inst          809                       # number of ReadReq MSHR misses
system.cpu.icache.ReadReq_mshr_misses::total          809                       # number of ReadReq MSHR misses
system.cpu.icache.ReadReq_mshr_miss_latency::.cpu.inst     57192000                       # number of ReadReq MSHR miss cycles
system.cpu.icache.ReadReq_mshr_miss_latency::total     57192000                       # number of ReadReq MSHR miss cycles
system.cpu.icache.ReadReq_mshr_miss_rate::.cpu.inst     0.000084                       # mshr miss rate for ReadReq accesses
system.cpu.icache.ReadReq_mshr_miss_rate::total     0.000084                       # mshr miss rate for ReadReq accesses
system.cpu.icache.ReadReq_avg_mshr_miss_latency::.cpu.inst 70694.684796                       # average ReadReq mshr miss latency
system.cpu.icache.ReadReq_avg_mshr_miss_latency::total 70694.684796                       # average ReadReq mshr miss latency
system.cpu.icache.tags.pwrStateResidencyTicks::UNDEFINED  85531105500                       # Cumulative time (in ticks) in various power states
system.cpu.icache.tags.tagsinuse           247.841370                       # Cycle average of tags in use
system.cpu.icache.tags.total_refs             9663416                       # Total number of references to valid blocks.
system.cpu.icache.tags.sampled_refs               809                       # Sample count of references to valid blocks.
system.cpu.icache.tags.avg_refs          11944.889988                       # Average number of references to valid blocks.
system.cpu.icache.tags.warmup_cycle             87500                       # Cycle when the warmup percentage was hit.
system.cpu.icache.tags.occ_blocks::.cpu.inst   247.841370                       # Average occupied blocks per requestor
system.cpu.icache.tags.occ_percent::.cpu.inst     0.968130                       # Average percentage of cache occupancy
system.cpu.icache.tags.occ_percent::total     0.968130                       # Average percentage of cache occupancy
system.cpu.icache.tags.occ_task_id_blocks::1024          255                       # Occupied blocks per task id
system.cpu.icache.tags.age_task_id_blocks_1024::3          106                       # Occupied blocks per task id
system.cpu.icache.tags.age_task_id_blocks_1024::4          149                       # Occupied blocks per task id
system.cpu.icache.tags.occ_task_id_percent::1024     0.996094                       # Percentage of cache occupancy per task id
system.cpu.icache.tags.tag_accesses          19327641                       # Number of tag accesses
system.cpu.icache.tags.data_accesses         19327641                       # Number of data accesses
system.cpu.dtb.walker.pwrStateResidencyTicks::UNDEFINED  85531105500                       # Cumulative time (in ticks) in various power states
system.cpu.dtb.stage2_mmu.stage2_tlb.walker.pwrStateResidencyTicks::UNDEFINED  85531105500                       # Cumulative time (in ticks) in various power states
system.cpu.dcache.pwrStateResidencyTicks::UNDEFINED  85531105500                       # Cumulative time (in ticks) in various power states
system.cpu.dcache.demand_hits::.cpu.data     51308716                       # number of demand (read+write) hits
system.cpu.dcache.demand_hits::total         51308716                       # number of demand (read+write) hits
system.cpu.dcache.overall_hits::.cpu.data     51309223                       # number of overall hits
system.cpu.dcache.overall_hits::total        51309223                       # number of overall hits
system.cpu.dcache.demand_misses::.cpu.data       762652                       # number of demand (read+write) misses
system.cpu.dcache.demand_misses::total         762652                       # number of demand (read+write) misses
system.cpu.dcache.overall_misses::.cpu.data       770563                       # number of overall misses
system.cpu.dcache.overall_misses::total        770563                       # number of overall misses
system.cpu.dcache.demand_miss_latency::.cpu.data  27256930000                       # number of demand (read+write) miss cycles
system.cpu.dcache.demand_miss_latency::total  27256930000                       # number of demand (read+write) miss cycles
system.cpu.dcache.overall_miss_latency::.cpu.data  27256930000                       # number of overall miss cycles
system.cpu.dcache.overall_miss_latency::total  27256930000                       # number of overall miss cycles
system.cpu.dcache.demand_accesses::.cpu.data     52071368                       # number of demand (read+write) accesses
system.cpu.dcache.demand_accesses::total     52071368                       # number of demand (read+write) accesses
system.cpu.dcache.overall_accesses::.cpu.data     52079786                       # number of overall (read+write) accesses
system.cpu.dcache.overall_accesses::total     52079786                       # number of overall (read+write) accesses
system.cpu.dcache.demand_miss_rate::.cpu.data     0.014646                       # miss rate for demand accesses
system.cpu.dcache.demand_miss_rate::total     0.014646                       # miss rate for demand accesses
system.cpu.dcache.overall_miss_rate::.cpu.data     0.014796                       # miss rate for overall accesses
system.cpu.dcache.overall_miss_rate::total     0.014796                       # miss rate for overall accesses
system.cpu.dcache.demand_avg_miss_latency::.cpu.data 35739.668945                       # average overall miss latency
system.cpu.dcache.demand_avg_miss_latency::total 35739.668945                       # average overall miss latency
system.cpu.dcache.overall_avg_miss_latency::.cpu.data 35372.746940                       # average overall miss latency
system.cpu.dcache.overall_avg_miss_latency::total 35372.746940                       # average overall miss latency
system.cpu.dcache.blocked_cycles::no_mshrs       192990                       # number of cycles access was blocked
system.cpu.dcache.blocked_cycles::no_targets            0                       # number of cycles access was blocked
system.cpu.dcache.blocked::no_mshrs              3410                       # number of cycles access was blocked
system.cpu.dcache.blocked::no_targets               0                       # number of cycles access was blocked
system.cpu.dcache.avg_blocked_cycles::no_mshrs    56.595308                       # average number of cycles each access was blocked
system.cpu.dcache.avg_blocked_cycles::no_targets          nan                       # average number of cycles each access was blocked
system.cpu.dcache.writebacks::.writebacks       626188                       # number of writebacks
system.cpu.dcache.writebacks::total            626188                       # number of writebacks
system.cpu.dcache.demand_mshr_hits::.cpu.data        58965                       # number of demand (read+write) MSHR hits
system.cpu.dcache.demand_mshr_hits::total        58965                       # number of demand (read+write) MSHR hits
system.cpu.dcache.overall_mshr_hits::.cpu.data        58965                       # number of overall MSHR hits
system.cpu.dcache.overall_mshr_hits::total        58965                       # number of overall MSHR hits
system.cpu.dcache.demand_mshr_misses::.cpu.data       703687                       # number of demand (read+write) MSHR misses
system.cpu.dcache.demand_mshr_misses::total       703687                       # number of demand (read+write) MSHR misses
system.cpu.dcache.overall_mshr_misses::.cpu.data       711593                       # number of overall MSHR misses
system.cpu.dcache.overall_mshr_misses::total       711593                       # number of overall MSHR misses
system.cpu.dcache.demand_mshr_miss_latency::.cpu.data  24924053500                       # number of demand (read+write) MSHR miss cycles
system.cpu.dcache.demand_mshr_miss_latency::total  24924053500                       # number of demand (read+write) MSHR miss cycles
system.cpu.dcache.overall_mshr_miss_latency::.cpu.data  25550202999                       # number of overall MSHR miss cycles
system.cpu.dcache.overall_mshr_miss_latency::total  25550202999                       # number of overall MSHR miss cycles
system.cpu.dcache.demand_mshr_miss_rate::.cpu.data     0.013514                       # mshr miss rate for demand accesses
system.cpu.dcache.demand_mshr_miss_rate::total     0.013514                       # mshr miss rate for demand accesses
system.cpu.dcache.overall_mshr_miss_rate::.cpu.data     0.013664                       # mshr miss rate for overall accesses
system.cpu.dcache.overall_mshr_miss_rate::total     0.013664                       # mshr miss rate for overall accesses
system.cpu.dcache.demand_avg_mshr_miss_latency::.cpu.data 35419.232557                       # average overall mshr miss latency
system.cpu.dcache.demand_avg_mshr_miss_latency::total 35419.232557                       # average overall mshr miss latency
system.cpu.dcache.overall_avg_mshr_miss_latency::.cpu.data 35905.641285                       # average overall mshr miss latency
system.cpu.dcache.overall_avg_mshr_miss_latency::total 35905.641285                       # average overall mshr miss latency
system.cpu.dcache.replacements                 710568                       # number of replacements
system.cpu.dcache.ReadReq_hits::.cpu.data     40703555                       # number of ReadReq hits
system.cpu.dcache.ReadReq_hits::total        40703555                       # number of ReadReq hits
system.cpu.dcache.ReadReq_misses::.cpu.data       417712                       # number of ReadReq misses
system.cpu.dcache.ReadReq_misses::total        417712                       # number of ReadReq misses
system.cpu.dcache.ReadReq_miss_latency::.cpu.data  10665430500                       # number of ReadReq miss cycles
system.cpu.dcache.ReadReq_miss_latency::total  10665430500                       # number of ReadReq miss cycles
system.cpu.dcache.ReadReq_accesses::.cpu.data     41121267                       # number of ReadReq accesses(hits+misses)
system.cpu.dcache.ReadReq_accesses::total     41121267                       # number of ReadReq accesses(hits+misses)
system.cpu.dcache.ReadReq_miss_rate::.cpu.data     0.010158                       # miss rate for ReadReq accesses
system.cpu.dcache.ReadReq_miss_rate::total     0.010158                       # miss rate for ReadReq accesses
system.cpu.dcache.ReadReq_avg_miss_latency::.cpu.data 25532.976070                       # average ReadReq miss latency
system.cpu.dcache.ReadReq_avg_miss_latency::total 25532.976070                       # average ReadReq miss latency
system.cpu.dcache.ReadReq_mshr_hits::.cpu.data          371                       # number of ReadReq MSHR hits
system.cpu.dcache.ReadReq_mshr_hits::total          371                       # number of ReadReq MSHR hits
system.cpu.dcache.ReadReq_mshr_misses::.cpu.data       417341                       # number of ReadReq MSHR misses
system.cpu.dcache.ReadReq_mshr_misses::total       417341                       # number of ReadReq MSHR misses
system.cpu.dcache.ReadReq_mshr_miss_latency::.cpu.data  10234944500                       # number of ReadReq MSHR miss cycles
system.cpu.dcache.ReadReq_mshr_miss_latency::total  10234944500                       # number of ReadReq MSHR miss cycles
system.cpu.dcache.ReadReq_mshr_miss_rate::.cpu.data     0.010149                       # mshr miss rate for ReadReq accesses
system.cpu.dcache.ReadReq_mshr_miss_rate::total     0.010149                       # mshr miss rate for ReadReq accesses
system.cpu.dcache.ReadReq_avg_mshr_miss_latency::.cpu.data 24524.176872                       # average ReadReq mshr miss latency
system.cpu.dcache.ReadReq_avg_mshr_miss_latency::total 24524.176872                       # average ReadReq mshr miss latency
system.cpu.dcache.WriteReq_hits::.cpu.data     10605161                       # number of WriteReq hits
system.cpu.dcache.WriteReq_hits::total       10605161                       # number of WriteReq hits
system.cpu.dcache.WriteReq_misses::.cpu.data       344940                       # number of WriteReq misses
system.cpu.dcache.WriteReq_misses::total       344940                       # number of WriteReq misses
system.cpu.dcache.WriteReq_miss_latency::.cpu.data  16591499500                       # number of WriteReq miss cycles
system.cpu.dcache.WriteReq_miss_latency::total  16591499500                       # number of WriteReq miss cycles
system.cpu.dcache.WriteReq_accesses::.cpu.data     10950101                       # number of WriteReq accesses(hits+misses)
system.cpu.dcache.WriteReq_accesses::total     10950101                       # number of WriteReq accesses(hits+misses)
system.cpu.dcache.WriteReq_miss_rate::.cpu.data     0.031501                       # miss rate for WriteReq accesses
system.cpu.dcache.WriteReq_miss_rate::total     0.031501                       # miss rate for WriteReq accesses
system.cpu.dcache.WriteReq_avg_miss_latency::.cpu.data 48099.668058                       # average WriteReq miss latency
system.cpu.dcache.WriteReq_avg_miss_latency::total 48099.668058                       # average WriteReq miss latency
system.cpu.dcache.WriteReq_mshr_hits::.cpu.data        58594                       # number of WriteReq MSHR hits
system.cpu.dcache.WriteReq_mshr_hits::total        58594                       # number of WriteReq MSHR hits
system.cpu.dcache.WriteReq_mshr_misses::.cpu.data       286346                       # number of WriteReq MSHR misses
system.cpu.dcache.WriteReq_mshr_misses::total       286346                       # number of WriteReq MSHR misses
system.cpu.dcache.WriteReq_mshr_miss_latency::.cpu.data  14689109000                       # number of WriteReq MSHR miss cycles
system.cpu.dcache.WriteReq_mshr_miss_latency::total  14689109000                       # number of WriteReq MSHR miss cycles
system.cpu.dcache.WriteReq_mshr_miss_rate::.cpu.data     0.026150                       # mshr miss rate for WriteReq accesses
system.cpu.dcache.WriteReq_mshr_miss_rate::total     0.026150                       # mshr miss rate for WriteReq accesses
system.cpu.dcache.WriteReq_avg_mshr_miss_latency::.cpu.data 51298.460604                       # average WriteReq mshr miss latency
system.cpu.dcache.WriteReq_avg_mshr_miss_latency::total 51298.460604                       # average WriteReq mshr miss latency
system.cpu.dcache.SoftPFReq_hits::.cpu.data          507                       # number of SoftPFReq hits
system.cpu.dcache.SoftPFReq_hits::total           507                       # number of SoftPFReq hits
system.cpu.dcache.SoftPFReq_misses::.cpu.data         7911                       # number of SoftPFReq misses
system.cpu.dcache.SoftPFReq_misses::total         7911                       # number of SoftPFReq misses
system.cpu.dcache.SoftPFReq_accesses::.cpu.data         8418                       # number of SoftPFReq accesses(hits+misses)
system.cpu.dcache.SoftPFReq_accesses::total         8418                       # number of SoftPFReq accesses(hits+misses)
system.cpu.dcache.SoftPFReq_miss_rate::.cpu.data     0.939772                       # miss rate for SoftPFReq accesses
system.cpu.dcache.SoftPFReq_miss_rate::total     0.939772                       # miss rate for SoftPFReq accesses
system.cpu.dcache.SoftPFReq_mshr_misses::.cpu.data         7906                       # number of SoftPFReq MSHR misses
system.cpu.dcache.SoftPFReq_mshr_misses::total         7906                       # number of SoftPFReq MSHR misses
system.cpu.dcache.SoftPFReq_mshr_miss_latency::.cpu.data    626149499                       # number of SoftPFReq MSHR miss cycles
system.cpu.dcache.SoftPFReq_mshr_miss_latency::total    626149499                       # number of SoftPFReq MSHR miss cycles
system.cpu.dcache.SoftPFReq_mshr_miss_rate::.cpu.data     0.939178                       # mshr miss rate for SoftPFReq accesses
system.cpu.dcache.SoftPFReq_mshr_miss_rate::total     0.939178                       # mshr miss rate for SoftPFReq accesses
system.cpu.dcache.SoftPFReq_avg_mshr_miss_latency::.cpu.data 79199.278902                       # average SoftPFReq mshr miss latency
system.cpu.dcache.SoftPFReq_avg_mshr_miss_latency::total 79199.278902                       # average SoftPFReq mshr miss latency
system.cpu.dcache.LoadLockedReq_hits::.cpu.data           38                       # number of LoadLockedReq hits
system.cpu.dcache.LoadLockedReq_hits::total           38                       # number of LoadLockedReq hits
system.cpu.dcache.LoadLockedReq_accesses::.cpu.data           38                       # number of LoadLockedReq accesses(hits+misses)
system.cpu.dcache.LoadLockedReq_accesses::total           38                       # number of LoadLockedReq accesses(hits+misses)
system.cpu.dcache.StoreCondReq_hits::.cpu.data           38                       # number of StoreCondReq hits
system.cpu.dcache.StoreCondReq_hits::total           38                       # number of StoreCondReq hits
system.cpu.dcache.StoreCondReq_accesses::.cpu.data           38                       # number of StoreCondReq accesses(hits+misses)
system.cpu.dcache.StoreCondReq_accesses::total           38                       # number of StoreCondReq accesses(hits+misses)
system.cpu.dcache.tags.pwrStateResidencyTicks::UNDEFINED  85531105500                       # Cumulative time (in ticks) in various power states
system.cpu.dcache.tags.tagsinuse          1008.395502                       # Cycle average of tags in use
system.cpu.dcache.tags.total_refs            52020891                       # Total number of references to valid blocks.
system.cpu.dcache.tags.sampled_refs            711592                       # Sample count of references to valid blocks.
system.cpu.dcache.tags.avg_refs             73.104941                       # Average number of references to valid blocks.
system.cpu.dcache.tags.warmup_cycle            176500                       # Cycle when the warmup percentage was hit.
system.cpu.dcache.tags.occ_blocks::.cpu.data  1008.395502                       # Average occupied blocks per requestor
system.cpu.dcache.tags.occ_percent::.cpu.data     0.984761                       # Average percentage of cache occupancy
system.cpu.dcache.tags.occ_percent::total     0.984761                       # Average percentage of cache occupancy
system.cpu.dcache.tags.occ_task_id_blocks::1024         1024                       # Occupied blocks per task id
system.cpu.dcache.tags.age_task_id_blocks_1024::0          201                       # Occupied blocks per task id
system.cpu.dcache.tags.age_task_id_blocks_1024::1          352                       # Occupied blocks per task id
system.cpu.dcache.tags.age_task_id_blocks_1024::2          469                       # Occupied blocks per task id
system.cpu.dcache.tags.age_task_id_blocks_1024::3            2                       # Occupied blocks per task id
system.cpu.dcache.tags.occ_task_id_percent::1024            1                       # Percentage of cache occupancy per task id
system.cpu.dcache.tags.tag_accesses         104871316                       # Number of tag accesses
system.cpu.dcache.tags.data_accesses        104871316                       # Number of data accesses
system.cpu.itb.walker.pwrStateResidencyTicks::UNDEFINED  85531105500                       # Cumulative time (in ticks) in various power states
system.cpu.itb.stage2_mmu.stage2_tlb.walker.pwrStateResidencyTicks::UNDEFINED  85531105500                       # Cumulative time (in ticks) in various power states

---------- End Simulation Statistics   ----------
