
---------- Begin Simulation Statistics ----------
final_tick                                  288599000                       # Number of ticks from beginning of simulation (restored from checkpoints and never reset)
host_inst_rate                                 444216                       # Simulator instruction rate (inst/s)
host_mem_usage                                 678752                       # Number of bytes of host memory used
host_op_rate                                   519957                       # Simulator op (including micro ops) rate (op/s)
host_seconds                                     0.67                       # Real time elapsed on the host
host_tick_rate                              431239916                       # Simulator tick rate (ticks/s)
sim_freq                                 1000000000000                       # Frequency of simulated ticks
sim_insts                                      297245                       # Number of instructions simulated
sim_ops                                        347966                       # Number of ops (including micro ops) simulated
sim_seconds                                  0.000289                       # Number of seconds simulated
sim_ticks                                   288599000                       # Number of ticks simulated
system.cpu.branchPred.BTBCorrect                    0                       # Number of correct BTB predictions (this stat may not work properly.
system.cpu.branchPred.BTBHitPct             44.888182                       # BTB Hit Percentage
system.cpu.branchPred.BTBHits                   22300                       # Number of BTB hits
system.cpu.branchPred.BTBLookups                49679                       # Number of BTB lookups
system.cpu.branchPred.RASInCorrect                  5                       # Number of incorrect RAS predictions.
system.cpu.branchPred.condIncorrect              2744                       # Number of conditional branches incorrect
system.cpu.branchPred.condPredicted             40674                       # Number of conditional branches predicted
system.cpu.branchPred.indirectHits               3023                       # Number of indirect target hits.
system.cpu.branchPred.indirectLookups            4905                       # Number of indirect predictor lookups.
system.cpu.branchPred.indirectMisses             1882                       # Number of indirect misses.
system.cpu.branchPred.lookups                   61671                       # Number of BP lookups
system.cpu.branchPred.usedRAS                    6398                       # Number of times the RAS was used to get a target.
system.cpu.branchPredindirectMispredicted          125                       # Number of mispredicted indirect branches.
system.cpu.committedInsts                      297245                       # Number of instructions committed
system.cpu.committedOps                        347966                       # Number of ops (including micro ops) committed
system.cpu.cpi                               1.941826                       # CPI: cycles per instruction
system.cpu.discardedOps                          5602                       # Number of ops (including micro ops) which were discarded before commit
system.cpu.dtb.accesses                             0                       # DTB accesses
system.cpu.dtb.align_faults                         0                       # Number of TLB faults due to alignment restrictions
system.cpu.dtb.domain_faults                        0                       # Number of TLB faults due to domain restrictions
system.cpu.dtb.flush_entries                        0                       # Number of entries that have been flushed from TLB
system.cpu.dtb.flush_tlb                            0                       # Number of times complete TLB was flushed
system.cpu.dtb.flush_tlb_asid                       0                       # Number of times TLB was flushed by ASID
system.cpu.dtb.flush_tlb_mva                        0                       # Number of times TLB was flushed by MVA
system.cpu.dtb.flush_tlb_mva_asid                   0                       # Number of times TLB was flushed by MVA & ASID
system.cpu.dtb.hits                                 0                       # DTB hits
system.cpu.dtb.inst_accesses                        0                       # ITB inst accesses
system.cpu.dtb.inst_hits                            0                       # ITB inst hits
system.cpu.dtb.inst_misses                          0                       # ITB inst misses
system.cpu.dtb.misses                               0                       # DTB misses
system.cpu.dtb.perms_faults                         0                       # Number of TLB faults due to permissions restrictions
system.cpu.dtb.prefetch_faults                      0                       # Number of TLB faults due to prefetch
system.cpu.dtb.read_accesses                        0                       # DTB read accesses
system.cpu.dtb.read_hits                            0                       # DTB read hits
system.cpu.dtb.read_misses                          0                       # DTB read misses
system.cpu.dtb.stage2_mmu.stage2_tlb.accesses            0                       # DTB accesses
system.cpu.dtb.stage2_mmu.stage2_tlb.align_faults            0                       # Number of TLB faults due to alignment restrictions
system.cpu.dtb.stage2_mmu.stage2_tlb.domain_faults            0                       # Number of TLB faults due to domain restrictions
system.cpu.dtb.stage2_mmu.stage2_tlb.flush_entries            0                       # Number of entries that have been flushed from TLB
system.cpu.dtb.stage2_mmu.stage2_tlb.flush_tlb            0                       # Number of times complete TLB was flushed
system.cpu.dtb.stage2_mmu.stage2_tlb.flush_tlb_asid            0                       # Number of times TLB was flushed by ASID
system.cpu.dtb.stage2_mmu.stage2_tlb.flush_tlb_mva            0                       # Number of times TLB was flushed by MVA
system.cpu.dtb.stage2_mmu.stage2_tlb.flush_tlb_mva_asid            0                       # Number of times TLB was flushed by MVA & ASID
system.cpu.dtb.stage2_mmu.stage2_tlb.hits            0                       # DTB hits
system.cpu.dtb.stage2_mmu.stage2_tlb.inst_accesses            0                       # ITB inst accesses
system.cpu.dtb.stage2_mmu.stage2_tlb.inst_hits            0                       # ITB inst hits
system.cpu.dtb.stage2_mmu.stage2_tlb.inst_misses            0                       # ITB inst misses
system.cpu.dtb.stage2_mmu.stage2_tlb.misses            0                       # DTB misses
system.cpu.dtb.stage2_mmu.stage2_tlb.perms_faults            0                       # Number of TLB faults due to permissions restrictions
system.cpu.dtb.stage2_mmu.stage2_tlb.prefetch_faults            0                       # Number of TLB faults due to prefetch
system.cpu.dtb.stage2_mmu.stage2_tlb.read_accesses            0                       # DTB read accesses
system.cpu.dtb.stage2_mmu.stage2_tlb.read_hits            0                       # DTB read hits
system.cpu.dtb.stage2_mmu.stage2_tlb.read_misses            0                       # DTB read misses
system.cpu.dtb.stage2_mmu.stage2_tlb.walker.walkRequestOrigin_Requested::Data            0                       # Table walker requests started/completed, data/inst
system.cpu.dtb.stage2_mmu.stage2_tlb.walker.walkRequestOrigin_Requested::Inst            0                       # Table walker requests started/completed, data/inst
system.cpu.dtb.stage2_mmu.stage2_tlb.walker.walkRequestOrigin_Requested::total            0                       # Table walker requests started/completed, data/inst
system.cpu.dtb.stage2_mmu.stage2_tlb.walker.walkRequestOrigin_Completed::Data            0                       # Table walker requests started/completed, data/inst
system.cpu.dtb.stage2_mmu.stage2_tlb.walker.walkRequestOrigin_Completed::Inst            0                       # Table walker requests started/completed, data/inst
system.cpu.dtb.stage2_mmu.stage2_tlb.walker.walkRequestOrigin_Completed::total            0                       # Table walker requests started/completed, data/inst
system.cpu.dtb.stage2_mmu.stage2_tlb.walker.walkRequestOrigin::total            0                       # Table walker requests started/completed, data/inst
system.cpu.dtb.stage2_mmu.stage2_tlb.walker.walks            0                       # Table walker walks requested
system.cpu.dtb.stage2_mmu.stage2_tlb.write_accesses            0                       # DTB write accesses
system.cpu.dtb.stage2_mmu.stage2_tlb.write_hits            0                       # DTB write hits
system.cpu.dtb.stage2_mmu.stage2_tlb.write_misses            0                       # DTB write misses
system.cpu.dtb.walker.walkRequestOrigin_Requested::Data            0                       # Table walker requests started/completed, data/inst
system.cpu.dtb.walker.walkRequestOrigin_Requested::Inst            0                       # Table walker requests started/completed, data/inst
system.cpu.dtb.walker.walkRequestOrigin_Requested::total            0                       # Table walker requests started/completed, data/inst
system.cpu.dtb.walker.walkRequestOrigin_Completed::Data            0                       # Table walker requests started/completed, data/inst
system.cpu.dtb.walker.walkRequestOrigin_Completed::Inst            0                       # Table walker requests started/completed, data/inst
system.cpu.dtb.walker.walkRequestOrigin_Completed::total            0                       # Table walker requests started/completed, data/inst
system.cpu.dtb.walker.walkRequestOrigin::total            0                       # Table walker requests started/completed, data/inst
system.cpu.dtb.walker.walks                         0                       # Table walker walks requested
system.cpu.dtb.write_accesses                       0                       # DTB write accesses
system.cpu.dtb.write_hits                           0                       # DTB write hits
system.cpu.dtb.write_misses                         0                       # DTB write misses
system.cpu.fetch2.amo_instructions                  0                       # Number of memory atomic instructions successfully decoded
system.cpu.fetch2.fp_instructions                   0                       # Number of floating point instructions successfully decoded
system.cpu.fetch2.int_instructions             183061                       # Number of integer instructions successfully decoded
system.cpu.fetch2.load_instructions             45516                       # Number of memory load instructions successfully decoded
system.cpu.fetch2.store_instructions            22169                       # Number of memory store instructions successfully decoded
system.cpu.fetch2.vec_instructions                  0                       # Number of SIMD instructions successfully decoded
system.cpu.idleCycles                          193079                       # Total number of cycles that the object has spent stopped
system.cpu.ipc                               0.514979                       # IPC: instructions per cycle
system.cpu.itb.accesses                             0                       # DTB accesses
system.cpu.itb.align_faults                         0                       # Number of TLB faults due to alignment restrictions
system.cpu.itb.domain_faults                        0                       # Number of TLB faults due to domain restrictions
system.cpu.itb.flush_entries                        0                       # Number of entries that have been flushed from TLB
system.cpu.itb.flush_tlb                            0                       # Number of times complete TLB was flushed
system.cpu.itb.flush_tlb_asid                       0                       # Number of times TLB was flushed by ASID
system.cpu.itb.flush_tlb_mva                        0                       # Number of times TLB was flushed by MVA
system.cpu.itb.flush_tlb_mva_asid                   0                       # Number of times TLB was flushed by MVA & ASID
system.cpu.itb.hits                                 0                       # DTB hits
system.cpu.itb.inst_accesses                        0                       # ITB inst accesses
system.cpu.itb.inst_hits                            0                       # ITB inst hits
system.cpu.itb.inst_misses                          0                       # ITB inst misses
system.cpu.itb.misses                               0                       # DTB misses
system.cpu.itb.perms_faults                         0                       # Number of TLB faults due to permissions restrictions
system.cpu.itb.prefetch_faults                      0                       # Number of TLB faults due to prefetch
system.cpu.itb.read_accesses                        0                       # DTB read accesses
system.cpu.itb.read_hits                            0                       # DTB read hits
system.cpu.itb.read_misses                          0                       # DTB read misses
system.cpu.itb.stage2_mmu.stage2_tlb.accesses            0                       # DTB accesses
system.cpu.itb.stage2_mmu.stage2_tlb.align_faults            0                       # Number of TLB faults due to alignment restrictions
system.cpu.itb.stage2_mmu.stage2_tlb.domain_faults            0                       # Number of TLB faults due to domain restrictions
system.cpu.itb.stage2_mmu.stage2_tlb.flush_entries            0                       # Number of entries that have been flushed from TLB
system.cpu.itb.stage2_mmu.stage2_tlb.flush_tlb            0                       # Number of times complete TLB was flushed
system.cpu.itb.stage2_mmu.stage2_tlb.flush_tlb_asid            0                       # Number of times TLB was flushed by ASID
system.cpu.itb.stage2_mmu.stage2_tlb.flush_tlb_mva            0                       # Number of times TLB was flushed by MVA
system.cpu.itb.stage2_mmu.stage2_tlb.flush_tlb_mva_asid            0                       # Number of times TLB was flushed by MVA & ASID
system.cpu.itb.stage2_mmu.stage2_tlb.hits            0                       # DTB hits
system.cpu.itb.stage2_mmu.stage2_tlb.inst_accesses            0                       # ITB inst accesses
system.cpu.itb.stage2_mmu.stage2_tlb.inst_hits            0                       # ITB inst hits
system.cpu.itb.stage2_mmu.stage2_tlb.inst_misses            0                       # ITB inst misses
system.cpu.itb.stage2_mmu.stage2_tlb.misses            0                       # DTB misses
system.cpu.itb.stage2_mmu.stage2_tlb.perms_faults            0                       # Number of TLB faults due to permissions restrictions
system.cpu.itb.stage2_mmu.stage2_tlb.prefetch_faults            0                       # Number of TLB faults due to prefetch
system.cpu.itb.stage2_mmu.stage2_tlb.read_accesses            0                       # DTB read accesses
system.cpu.itb.stage2_mmu.stage2_tlb.read_hits            0                       # DTB read hits
system.cpu.itb.stage2_mmu.stage2_tlb.read_misses            0                       # DTB read misses
system.cpu.itb.stage2_mmu.stage2_tlb.walker.walkRequestOrigin_Requested::Data            0                       # Table walker requests started/completed, data/inst
system.cpu.itb.stage2_mmu.stage2_tlb.walker.walkRequestOrigin_Requested::Inst            0                       # Table walker requests started/completed, data/inst
system.cpu.itb.stage2_mmu.stage2_tlb.walker.walkRequestOrigin_Requested::total            0                       # Table walker requests started/completed, data/inst
system.cpu.itb.stage2_mmu.stage2_tlb.walker.walkRequestOrigin_Completed::Data            0                       # Table walker requests started/completed, data/inst
system.cpu.itb.stage2_mmu.stage2_tlb.walker.walkRequestOrigin_Completed::Inst            0                       # Table walker requests started/completed, data/inst
system.cpu.itb.stage2_mmu.stage2_tlb.walker.walkRequestOrigin_Completed::total            0                       # Table walker requests started/completed, data/inst
system.cpu.itb.stage2_mmu.stage2_tlb.walker.walkRequestOrigin::total            0                       # Table walker requests started/completed, data/inst
system.cpu.itb.stage2_mmu.stage2_tlb.walker.walks            0                       # Table walker walks requested
system.cpu.itb.stage2_mmu.stage2_tlb.write_accesses            0                       # DTB write accesses
system.cpu.itb.stage2_mmu.stage2_tlb.write_hits            0                       # DTB write hits
system.cpu.itb.stage2_mmu.stage2_tlb.write_misses            0                       # DTB write misses
system.cpu.itb.walker.walkRequestOrigin_Requested::Data            0                       # Table walker requests started/completed, data/inst
system.cpu.itb.walker.walkRequestOrigin_Requested::Inst            0                       # Table walker requests started/completed, data/inst
system.cpu.itb.walker.walkRequestOrigin_Requested::total            0                       # Table walker requests started/completed, data/inst
system.cpu.itb.walker.walkRequestOrigin_Completed::Data            0                       # Table walker requests started/completed, data/inst
system.cpu.itb.walker.walkRequestOrigin_Completed::Inst            0                       # Table walker requests started/completed, data/inst
system.cpu.itb.walker.walkRequestOrigin_Completed::total            0                       # Table walker requests started/completed, data/inst
system.cpu.itb.walker.walkRequestOrigin::total            0                       # Table walker requests started/completed, data/inst
system.cpu.itb.walker.walks                         0                       # Table walker walks requested
system.cpu.itb.write_accesses                       0                       # DTB write accesses
system.cpu.itb.write_hits                           0                       # DTB write hits
system.cpu.itb.write_misses                         0                       # DTB write misses
system.cpu.numCycles                           577198                       # number of cpu cycles simulated
system.cpu.numFetchSuspends                         0                       # Number of times Execute suspended instruction fetching
system.cpu.numWorkItemsCompleted                    0                       # number of work items this cpu completed
system.cpu.numWorkItemsStarted                      0                       # number of work items this cpu started
system.cpu.op_class_0::No_OpClass                   0      0.00%      0.00% # Class of committed instruction
system.cpu.op_class_0::IntAlu                  234694     67.45%     67.45% # Class of committed instruction
system.cpu.op_class_0::IntMult                   1820      0.52%     67.97% # Class of committed instruction
system.cpu.op_class_0::IntDiv                       0      0.00%     67.97% # Class of committed instruction
system.cpu.op_class_0::FloatAdd                     0      0.00%     67.97% # Class of committed instruction
system.cpu.op_class_0::FloatCmp                     0      0.00%     67.97% # Class of committed instruction
system.cpu.op_class_0::FloatCvt                     0      0.00%     67.97% # Class of committed instruction
system.cpu.op_class_0::FloatMult                    0      0.00%     67.97% # Class of committed instruction
system.cpu.op_class_0::FloatMultAcc                 0      0.00%     67.97% # Class of committed instruction
system.cpu.op_class_0::FloatDiv                     0      0.00%     67.97% # Class of committed instruction
system.cpu.op_class_0::FloatMisc                    0      0.00%     67.97% # Class of committed instruction
system.cpu.op_class_0::FloatSqrt                    0      0.00%     67.97% # Class of committed instruction
system.cpu.op_class_0::SimdAdd                      0      0.00%     67.97% # Class of committed instruction
system.cpu.op_class_0::SimdAddAcc                   0      0.00%     67.97% # Class of committed instruction
system.cpu.op_class_0::SimdAlu                      0      0.00%     67.97% # Class of committed instruction
system.cpu.op_class_0::SimdCmp                      0      0.00%     67.97% # Class of committed instruction
system.cpu.op_class_0::SimdCvt                      0      0.00%     67.97% # Class of committed instruction
system.cpu.op_class_0::SimdMisc                     0      0.00%     67.97% # Class of committed instruction
system.cpu.op_class_0::SimdMult                     0      0.00%     67.97% # Class of committed instruction
system.cpu.op_class_0::SimdMultAcc                  0      0.00%     67.97% # Class of committed instruction
system.cpu.op_class_0::SimdShift                    0      0.00%     67.97% # Class of committed instruction
system.cpu.op_class_0::SimdShiftAcc                 0      0.00%     67.97% # Class of committed instruction
system.cpu.op_class_0::SimdDiv                      0      0.00%     67.97% # Class of committed instruction
system.cpu.op_class_0::SimdSqrt                     0      0.00%     67.97% # Class of committed instruction
system.cpu.op_class_0::SimdFloatAdd                 0      0.00%     67.97% # Class of committed instruction
system.cpu.op_class_0::SimdFloatAlu                 0      0.00%     67.97% # Class of committed instruction
system.cpu.op_class_0::SimdFloatCmp                 0      0.00%     67.97% # Class of committed instruction
system.cpu.op_class_0::SimdFloatCvt                 0      0.00%     67.97% # Class of committed instruction
system.cpu.op_class_0::SimdFloatDiv                 0      0.00%     67.97% # Class of committed instruction
system.cpu.op_class_0::SimdFloatMisc               21      0.01%     67.98% # Class of committed instruction
system.cpu.op_class_0::SimdFloatMult                0      0.00%     67.98% # Class of committed instruction
system.cpu.op_class_0::SimdFloatMultAcc             0      0.00%     67.98% # Class of committed instruction
system.cpu.op_class_0::SimdFloatSqrt                0      0.00%     67.98% # Class of committed instruction
system.cpu.op_class_0::SimdReduceAdd                0      0.00%     67.98% # Class of committed instruction
system.cpu.op_class_0::SimdReduceAlu                0      0.00%     67.98% # Class of committed instruction
system.cpu.op_class_0::SimdReduceCmp                0      0.00%     67.98% # Class of committed instruction
system.cpu.op_class_0::SimdFloatReduceAdd            0      0.00%     67.98% # Class of committed instruction
system.cpu.op_class_0::SimdFloatReduceCmp            0      0.00%     67.98% # Class of committed instruction
system.cpu.op_class_0::SimdAes                      0      0.00%     67.98% # Class of committed instruction
system.cpu.op_class_0::SimdAesMix                   0      0.00%     67.98% # Class of committed instruction
system.cpu.op_class_0::SimdSha1Hash                 0      0.00%     67.98% # Class of committed instruction
system.cpu.op_class_0::SimdSha1Hash2                0      0.00%     67.98% # Class of committed instruction
system.cpu.op_class_0::SimdSha256Hash               0      0.00%     67.98% # Class of committed instruction
system.cpu.op_class_0::SimdSha256Hash2              0      0.00%     67.98% # Class of committed instruction
system.cpu.op_class_0::SimdShaSigma2                0      0.00%     67.98% # Class of committed instruction
system.cpu.op_class_0::SimdShaSigma3                0      0.00%     67.98% # Class of committed instruction
system.cpu.op_class_0::SimdPredAlu                  0      0.00%     67.98% # Class of committed instruction
system.cpu.op_class_0::MemRead                  61878     17.78%     85.76% # Class of committed instruction
system.cpu.op_class_0::MemWrite                 49553     14.24%    100.00% # Class of committed instruction
system.cpu.op_class_0::FloatMemRead                 0      0.00%    100.00% # Class of committed instruction
system.cpu.op_class_0::FloatMemWrite                0      0.00%    100.00% # Class of committed instruction
system.cpu.op_class_0::IprAccess                    0      0.00%    100.00% # Class of committed instruction
system.cpu.op_class_0::InstPrefetch                 0      0.00%    100.00% # Class of committed instruction
system.cpu.op_class_0::total                   347966                       # Class of committed instruction
system.cpu.tickCycles                          384119                       # Number of cycles that the object actually ticked
system.cpu.workload.numSyscalls                    47                       # Number of system calls
system.membus.snoop_filter.hit_multi_requests          557                       # Number of requests hitting in the snoop filter with multiple (>1) holders of the requested data.
system.membus.snoop_filter.hit_multi_snoops            0                       # Number of snoops hitting in the snoop filter with multiple (>1) holders of the requested data.
system.membus.snoop_filter.hit_single_requests         2736                       # Number of requests hitting in the snoop filter with a single holder of the requested data.
system.membus.snoop_filter.hit_single_snoops            0                       # Number of snoops hitting in the snoop filter with a single holder of the requested data.
system.membus.snoop_filter.tot_requests          5978                       # Total number of requests made to the snoop filter.
system.membus.snoop_filter.tot_snoops               0                       # Total number of snoops made to the snoop filter.
system.membus.pwrStateResidencyTicks::UNDEFINED    288599000                       # Cumulative time (in ticks) in various power states
system.membus.trans_dist::ReadResp               3164                       # Transaction distribution
system.membus.trans_dist::WritebackClean         2714                       # Transaction distribution
system.membus.trans_dist::CleanEvict                2                       # Transaction distribution
system.membus.trans_dist::ReadExReq                98                       # Transaction distribution
system.membus.trans_dist::ReadExResp               98                       # Transaction distribution
system.membus.trans_dist::ReadCleanReq           3050                       # Transaction distribution
system.membus.trans_dist::ReadSharedReq           114                       # Transaction distribution
system.membus.pkt_count_system.cpu.icache.mem_side::system.mem_ctrls.port         8814                       # Packet count per connected master and slave (bytes)
system.membus.pkt_count_system.cpu.dcache.mem_side::system.mem_ctrls.port          426                       # Packet count per connected master and slave (bytes)
system.membus.pkt_count::total                   9240                       # Packet count per connected master and slave (bytes)
system.membus.pkt_size_system.cpu.icache.mem_side::system.mem_ctrls.port       368896                       # Cumulative packet size per connected master and slave (bytes)
system.membus.pkt_size_system.cpu.dcache.mem_side::system.mem_ctrls.port        13568                       # Cumulative packet size per connected master and slave (bytes)
system.membus.pkt_size::total                  382464                       # Cumulative packet size per connected master and slave (bytes)
system.membus.snoops                                0                       # Total snoops (count)
system.membus.snoopTraffic                          0                       # Total snoop traffic (bytes)
system.membus.snoop_fanout::samples              3262                       # Request fanout histogram
system.membus.snoop_fanout::mean             0.176885                       # Request fanout histogram
system.membus.snoop_fanout::stdev            0.381630                       # Request fanout histogram
system.membus.snoop_fanout::underflows              0      0.00%      0.00% # Request fanout histogram
system.membus.snoop_fanout::0                    2685     82.31%     82.31% # Request fanout histogram
system.membus.snoop_fanout::1                     577     17.69%    100.00% # Request fanout histogram
system.membus.snoop_fanout::2                       0      0.00%    100.00% # Request fanout histogram
system.membus.snoop_fanout::overflows               0      0.00%    100.00% # Request fanout histogram
system.membus.snoop_fanout::min_value               0                       # Request fanout histogram
system.membus.snoop_fanout::max_value               1                       # Request fanout histogram
system.membus.snoop_fanout::total                3262                       # Request fanout histogram
system.membus.reqLayer0.occupancy            17457500                       # Layer occupancy (ticks)
system.membus.reqLayer0.utilization               6.0                       # Layer utilization (%)
system.membus.respLayer1.occupancy           15546500                       # Layer occupancy (ticks)
system.membus.respLayer1.utilization              5.4                       # Layer utilization (%)
system.membus.respLayer2.occupancy            1137500                       # Layer occupancy (ticks)
system.membus.respLayer2.utilization              0.4                       # Layer utilization (%)
system.voltage_domain.voltage                       1                       # Voltage in Volts
system.clk_domain.clock                          1000                       # Clock period in ticks
system.cpu_voltage_domain.voltage                   1                       # Voltage in Volts
system.mem_ctrls.pwrStateResidencyTicks::UNDEFINED    288599000                       # Cumulative time (in ticks) in various power states
system.mem_ctrls.bytes_read::.cpu.inst         195200                       # Number of bytes read from this memory
system.mem_ctrls.bytes_read::.cpu.data          13568                       # Number of bytes read from this memory
system.mem_ctrls.bytes_read::total             208768                       # Number of bytes read from this memory
system.mem_ctrls.bytes_inst_read::.cpu.inst       195200                       # Number of instructions bytes read from this memory
system.mem_ctrls.bytes_inst_read::total        195200                       # Number of instructions bytes read from this memory
system.mem_ctrls.num_reads::.cpu.inst            3050                       # Number of read requests responded to by this memory
system.mem_ctrls.num_reads::.cpu.data             212                       # Number of read requests responded to by this memory
system.mem_ctrls.num_reads::total                3262                       # Number of read requests responded to by this memory
system.mem_ctrls.bw_read::.cpu.inst         676371020                       # Total read bandwidth from this memory (bytes/s)
system.mem_ctrls.bw_read::.cpu.data          47013330                       # Total read bandwidth from this memory (bytes/s)
system.mem_ctrls.bw_read::total             723384350                       # Total read bandwidth from this memory (bytes/s)
system.mem_ctrls.bw_inst_read::.cpu.inst    676371020                       # Instruction read bandwidth from this memory (bytes/s)
system.mem_ctrls.bw_inst_read::total        676371020                       # Instruction read bandwidth from this memory (bytes/s)
system.mem_ctrls.bw_total::.cpu.inst        676371020                       # Total bandwidth to/from this memory (bytes/s)
system.mem_ctrls.bw_total::.cpu.data         47013330                       # Total bandwidth to/from this memory (bytes/s)
system.mem_ctrls.bw_total::total            723384350                       # Total bandwidth to/from this memory (bytes/s)
system.mem_ctrls.avgPriority_.writebacks::samples       159.00                       # Average QoS priority value for accepted requests
system.mem_ctrls.avgPriority_.cpu.inst::samples      1029.00                       # Average QoS priority value for accepted requests
system.mem_ctrls.avgPriority_.cpu.data::samples       212.00                       # Average QoS priority value for accepted requests
system.mem_ctrls.priorityMinLatency      0.000000018750                       # per QoS priority minimum request to response latency (s)
system.mem_ctrls.priorityMaxLatency      0.000464589750                       # per QoS priority maximum request to response latency (s)
system.mem_ctrls.numReadWriteTurnArounds            8                       # Number of turnarounds from READ to WRITE
system.mem_ctrls.numWriteReadTurnArounds            8                       # Number of turnarounds from WRITE to READ
system.mem_ctrls.numStayReadState                4702                       # Number of times bus staying in READ state
system.mem_ctrls.numStayWriteState                122                       # Number of times bus staying in WRITE state
system.mem_ctrls.readReqs                        3262                       # Number of read requests accepted
system.mem_ctrls.writeReqs                       2158                       # Number of write requests accepted
system.mem_ctrls.readBursts                      3262                       # Number of DRAM read bursts, including those serviced by the write queue
system.mem_ctrls.writeBursts                     2158                       # Number of DRAM write bursts, including those merged in the write queue
system.mem_ctrls.servicedByWrQ                   2021                       # Number of DRAM read bursts serviced by the write queue
system.mem_ctrls.mergedWrBursts                  1999                       # Number of DRAM write bursts merged with an existing one
system.mem_ctrls.neitherReadNorWriteReqs            0                       # Number of requests that are neither read nor write
system.mem_ctrls.perBankRdBursts::0               324                       # Per bank write bursts
system.mem_ctrls.perBankRdBursts::1                 7                       # Per bank write bursts
system.mem_ctrls.perBankRdBursts::2                44                       # Per bank write bursts
system.mem_ctrls.perBankRdBursts::3                50                       # Per bank write bursts
system.mem_ctrls.perBankRdBursts::4               328                       # Per bank write bursts
system.mem_ctrls.perBankRdBursts::5                26                       # Per bank write bursts
system.mem_ctrls.perBankRdBursts::6                64                       # Per bank write bursts
system.mem_ctrls.perBankRdBursts::7                15                       # Per bank write bursts
system.mem_ctrls.perBankRdBursts::8               107                       # Per bank write bursts
system.mem_ctrls.perBankRdBursts::9                82                       # Per bank write bursts
system.mem_ctrls.perBankRdBursts::10               44                       # Per bank write bursts
system.mem_ctrls.perBankRdBursts::11               57                       # Per bank write bursts
system.mem_ctrls.perBankRdBursts::12               64                       # Per bank write bursts
system.mem_ctrls.perBankRdBursts::13               18                       # Per bank write bursts
system.mem_ctrls.perBankRdBursts::14               10                       # Per bank write bursts
system.mem_ctrls.perBankRdBursts::15                1                       # Per bank write bursts
system.mem_ctrls.perBankWrBursts::0                32                       # Per bank write bursts
system.mem_ctrls.perBankWrBursts::1                 0                       # Per bank write bursts
system.mem_ctrls.perBankWrBursts::2                15                       # Per bank write bursts
system.mem_ctrls.perBankWrBursts::3                 0                       # Per bank write bursts
system.mem_ctrls.perBankWrBursts::4                 6                       # Per bank write bursts
system.mem_ctrls.perBankWrBursts::5                 4                       # Per bank write bursts
system.mem_ctrls.perBankWrBursts::6                 1                       # Per bank write bursts
system.mem_ctrls.perBankWrBursts::7                 1                       # Per bank write bursts
system.mem_ctrls.perBankWrBursts::8                34                       # Per bank write bursts
system.mem_ctrls.perBankWrBursts::9                 5                       # Per bank write bursts
system.mem_ctrls.perBankWrBursts::10                3                       # Per bank write bursts
system.mem_ctrls.perBankWrBursts::11                4                       # Per bank write bursts
system.mem_ctrls.perBankWrBursts::12               25                       # Per bank write bursts
system.mem_ctrls.perBankWrBursts::13                0                       # Per bank write bursts
system.mem_ctrls.perBankWrBursts::14                0                       # Per bank write bursts
system.mem_ctrls.perBankWrBursts::15                0                       # Per bank write bursts
system.mem_ctrls.avgRdQLen                       1.02                       # Average read queue length when enqueuing
system.mem_ctrls.avgWrQLen                      23.91                       # Average write queue length when enqueuing
system.mem_ctrls.totQLat                      7534250                       # Total ticks spent queuing
system.mem_ctrls.totBusLat                    6205000                       # Total ticks spent in databus transfers
system.mem_ctrls.totMemAccLat                30803000                       # Total ticks spent from burst creation until serviced by the DRAM
system.mem_ctrls.avgQLat                      6071.11                       # Average queueing delay per DRAM burst
system.mem_ctrls.avgBusLat                    5000.00                       # Average bus latency per DRAM burst
system.mem_ctrls.avgMemAccLat                24821.11                       # Average memory access latency per DRAM burst
system.mem_ctrls.numRdRetry                         0                       # Number of times read queue was full causing retry
system.mem_ctrls.numWrRetry                         0                       # Number of times write queue was full causing retry
system.mem_ctrls.readRowHits                     1047                       # Number of row buffer hits during reads
system.mem_ctrls.writeRowHits                     104                       # Number of row buffer hits during writes
system.mem_ctrls.readRowHitRate                 84.37                       # Row buffer hit rate for reads
system.mem_ctrls.writeRowHitRate                65.41                       # Row buffer hit rate for writes
system.mem_ctrls.readPktSize::0                     0                       # Read request sizes (log2)
system.mem_ctrls.readPktSize::1                     0                       # Read request sizes (log2)
system.mem_ctrls.readPktSize::2                     0                       # Read request sizes (log2)
system.mem_ctrls.readPktSize::3                     0                       # Read request sizes (log2)
system.mem_ctrls.readPktSize::4                     0                       # Read request sizes (log2)
system.mem_ctrls.readPktSize::5                     0                       # Read request sizes (log2)
system.mem_ctrls.readPktSize::6                  3262                       # Read request sizes (log2)
system.mem_ctrls.writePktSize::0                    0                       # Write request sizes (log2)
system.mem_ctrls.writePktSize::1                    0                       # Write request sizes (log2)
system.mem_ctrls.writePktSize::2                    0                       # Write request sizes (log2)
system.mem_ctrls.writePktSize::3                    0                       # Write request sizes (log2)
system.mem_ctrls.writePktSize::4                    0                       # Write request sizes (log2)
system.mem_ctrls.writePktSize::5                    0                       # Write request sizes (log2)
system.mem_ctrls.writePktSize::6                 2158                       # Write request sizes (log2)
system.mem_ctrls.rdQLenPdf::0                    1142                       # What read queue length does an incoming req see
system.mem_ctrls.rdQLenPdf::1                      94                       # What read queue length does an incoming req see
system.mem_ctrls.rdQLenPdf::2                       5                       # What read queue length does an incoming req see
system.mem_ctrls.rdQLenPdf::3                       0                       # What read queue length does an incoming req see
system.mem_ctrls.rdQLenPdf::4                       0                       # What read queue length does an incoming req see
system.mem_ctrls.rdQLenPdf::5                       0                       # What read queue length does an incoming req see
system.mem_ctrls.rdQLenPdf::6                       0                       # What read queue length does an incoming req see
system.mem_ctrls.rdQLenPdf::7                       0                       # What read queue length does an incoming req see
system.mem_ctrls.rdQLenPdf::8                       0                       # What read queue length does an incoming req see
system.mem_ctrls.rdQLenPdf::9                       0                       # What read queue length does an incoming req see
system.mem_ctrls.rdQLenPdf::10                      0                       # What read queue length does an incoming req see
system.mem_ctrls.rdQLenPdf::11                      0                       # What read queue length does an incoming req see
system.mem_ctrls.rdQLenPdf::12                      0                       # What read queue length does an incoming req see
system.mem_ctrls.rdQLenPdf::13                      0                       # What read queue length does an incoming req see
system.mem_ctrls.rdQLenPdf::14                      0                       # What read queue length does an incoming req see
system.mem_ctrls.rdQLenPdf::15                      0                       # What read queue length does an incoming req see
system.mem_ctrls.rdQLenPdf::16                      0                       # What read queue length does an incoming req see
system.mem_ctrls.rdQLenPdf::17                      0                       # What read queue length does an incoming req see
system.mem_ctrls.rdQLenPdf::18                      0                       # What read queue length does an incoming req see
system.mem_ctrls.rdQLenPdf::19                      0                       # What read queue length does an incoming req see
system.mem_ctrls.rdQLenPdf::20                      0                       # What read queue length does an incoming req see
system.mem_ctrls.rdQLenPdf::21                      0                       # What read queue length does an incoming req see
system.mem_ctrls.rdQLenPdf::22                      0                       # What read queue length does an incoming req see
system.mem_ctrls.rdQLenPdf::23                      0                       # What read queue length does an incoming req see
system.mem_ctrls.rdQLenPdf::24                      0                       # What read queue length does an incoming req see
system.mem_ctrls.rdQLenPdf::25                      0                       # What read queue length does an incoming req see
system.mem_ctrls.rdQLenPdf::26                      0                       # What read queue length does an incoming req see
system.mem_ctrls.rdQLenPdf::27                      0                       # What read queue length does an incoming req see
system.mem_ctrls.rdQLenPdf::28                      0                       # What read queue length does an incoming req see
system.mem_ctrls.rdQLenPdf::29                      0                       # What read queue length does an incoming req see
system.mem_ctrls.rdQLenPdf::30                      0                       # What read queue length does an incoming req see
system.mem_ctrls.rdQLenPdf::31                      0                       # What read queue length does an incoming req see
system.mem_ctrls.wrQLenPdf::0                       1                       # What write queue length does an incoming req see
system.mem_ctrls.wrQLenPdf::1                       1                       # What write queue length does an incoming req see
system.mem_ctrls.wrQLenPdf::2                       1                       # What write queue length does an incoming req see
system.mem_ctrls.wrQLenPdf::3                       1                       # What write queue length does an incoming req see
system.mem_ctrls.wrQLenPdf::4                       1                       # What write queue length does an incoming req see
system.mem_ctrls.wrQLenPdf::5                       1                       # What write queue length does an incoming req see
system.mem_ctrls.wrQLenPdf::6                       1                       # What write queue length does an incoming req see
system.mem_ctrls.wrQLenPdf::7                       1                       # What write queue length does an incoming req see
system.mem_ctrls.wrQLenPdf::8                       1                       # What write queue length does an incoming req see
system.mem_ctrls.wrQLenPdf::9                       1                       # What write queue length does an incoming req see
system.mem_ctrls.wrQLenPdf::10                      1                       # What write queue length does an incoming req see
system.mem_ctrls.wrQLenPdf::11                      1                       # What write queue length does an incoming req see
system.mem_ctrls.wrQLenPdf::12                      1                       # What write queue length does an incoming req see
system.mem_ctrls.wrQLenPdf::13                      1                       # What write queue length does an incoming req see
system.mem_ctrls.wrQLenPdf::14                      1                       # What write queue length does an incoming req see
system.mem_ctrls.wrQLenPdf::15                      2                       # What write queue length does an incoming req see
system.mem_ctrls.wrQLenPdf::16                      2                       # What write queue length does an incoming req see
system.mem_ctrls.wrQLenPdf::17                      9                       # What write queue length does an incoming req see
system.mem_ctrls.wrQLenPdf::18                      9                       # What write queue length does an incoming req see
system.mem_ctrls.wrQLenPdf::19                      9                       # What write queue length does an incoming req see
system.mem_ctrls.wrQLenPdf::20                      9                       # What write queue length does an incoming req see
system.mem_ctrls.wrQLenPdf::21                      9                       # What write queue length does an incoming req see
system.mem_ctrls.wrQLenPdf::22                      9                       # What write queue length does an incoming req see
system.mem_ctrls.wrQLenPdf::23                      9                       # What write queue length does an incoming req see
system.mem_ctrls.wrQLenPdf::24                      9                       # What write queue length does an incoming req see
system.mem_ctrls.wrQLenPdf::25                      9                       # What write queue length does an incoming req see
system.mem_ctrls.wrQLenPdf::26                      9                       # What write queue length does an incoming req see
system.mem_ctrls.wrQLenPdf::27                      9                       # What write queue length does an incoming req see
system.mem_ctrls.wrQLenPdf::28                      9                       # What write queue length does an incoming req see
system.mem_ctrls.wrQLenPdf::29                      8                       # What write queue length does an incoming req see
system.mem_ctrls.wrQLenPdf::30                      8                       # What write queue length does an incoming req see
system.mem_ctrls.wrQLenPdf::31                      8                       # What write queue length does an incoming req see
system.mem_ctrls.wrQLenPdf::32                      8                       # What write queue length does an incoming req see
system.mem_ctrls.wrQLenPdf::33                      0                       # What write queue length does an incoming req see
system.mem_ctrls.wrQLenPdf::34                      0                       # What write queue length does an incoming req see
system.mem_ctrls.wrQLenPdf::35                      0                       # What write queue length does an incoming req see
system.mem_ctrls.wrQLenPdf::36                      0                       # What write queue length does an incoming req see
system.mem_ctrls.wrQLenPdf::37                      0                       # What write queue length does an incoming req see
system.mem_ctrls.wrQLenPdf::38                      0                       # What write queue length does an incoming req see
system.mem_ctrls.wrQLenPdf::39                      0                       # What write queue length does an incoming req see
system.mem_ctrls.wrQLenPdf::40                      0                       # What write queue length does an incoming req see
system.mem_ctrls.wrQLenPdf::41                      0                       # What write queue length does an incoming req see
system.mem_ctrls.wrQLenPdf::42                      0                       # What write queue length does an incoming req see
system.mem_ctrls.wrQLenPdf::43                      0                       # What write queue length does an incoming req see
system.mem_ctrls.wrQLenPdf::44                      0                       # What write queue length does an incoming req see
system.mem_ctrls.wrQLenPdf::45                      0                       # What write queue length does an incoming req see
system.mem_ctrls.wrQLenPdf::46                      0                       # What write queue length does an incoming req see
system.mem_ctrls.wrQLenPdf::47                      0                       # What write queue length does an incoming req see
system.mem_ctrls.wrQLenPdf::48                      0                       # What write queue length does an incoming req see
system.mem_ctrls.wrQLenPdf::49                      0                       # What write queue length does an incoming req see
system.mem_ctrls.wrQLenPdf::50                      0                       # What write queue length does an incoming req see
system.mem_ctrls.wrQLenPdf::51                      0                       # What write queue length does an incoming req see
system.mem_ctrls.wrQLenPdf::52                      0                       # What write queue length does an incoming req see
system.mem_ctrls.wrQLenPdf::53                      0                       # What write queue length does an incoming req see
system.mem_ctrls.wrQLenPdf::54                      0                       # What write queue length does an incoming req see
system.mem_ctrls.wrQLenPdf::55                      0                       # What write queue length does an incoming req see
system.mem_ctrls.wrQLenPdf::56                      0                       # What write queue length does an incoming req see
system.mem_ctrls.wrQLenPdf::57                      0                       # What write queue length does an incoming req see
system.mem_ctrls.wrQLenPdf::58                      0                       # What write queue length does an incoming req see
system.mem_ctrls.wrQLenPdf::59                      0                       # What write queue length does an incoming req see
system.mem_ctrls.wrQLenPdf::60                      0                       # What write queue length does an incoming req see
system.mem_ctrls.wrQLenPdf::61                      0                       # What write queue length does an incoming req see
system.mem_ctrls.wrQLenPdf::62                      0                       # What write queue length does an incoming req see
system.mem_ctrls.wrQLenPdf::63                      0                       # What write queue length does an incoming req see
system.mem_ctrls.bytesPerActivate::samples          218                       # Bytes accessed per row activation
system.mem_ctrls.bytesPerActivate::mean    401.908257                       # Bytes accessed per row activation
system.mem_ctrls.bytesPerActivate::gmean   277.880645                       # Bytes accessed per row activation
system.mem_ctrls.bytesPerActivate::stdev   299.869881                       # Bytes accessed per row activation
system.mem_ctrls.bytesPerActivate::0-127           41     18.81%     18.81% # Bytes accessed per row activation
system.mem_ctrls.bytesPerActivate::128-255           45     20.64%     39.45% # Bytes accessed per row activation
system.mem_ctrls.bytesPerActivate::256-383           30     13.76%     53.21% # Bytes accessed per row activation
system.mem_ctrls.bytesPerActivate::384-511           15      6.88%     60.09% # Bytes accessed per row activation
system.mem_ctrls.bytesPerActivate::512-639           10      4.59%     64.68% # Bytes accessed per row activation
system.mem_ctrls.bytesPerActivate::640-767           49     22.48%     87.16% # Bytes accessed per row activation
system.mem_ctrls.bytesPerActivate::768-895            8      3.67%     90.83% # Bytes accessed per row activation
system.mem_ctrls.bytesPerActivate::896-1023            7      3.21%     94.04% # Bytes accessed per row activation
system.mem_ctrls.bytesPerActivate::1024-1151           13      5.96%    100.00% # Bytes accessed per row activation
system.mem_ctrls.bytesPerActivate::total          218                       # Bytes accessed per row activation
system.mem_ctrls.rdPerTurnAround::samples            8                       # Reads before turning the bus around for writes
system.mem_ctrls.rdPerTurnAround::mean            150                       # Reads before turning the bus around for writes
system.mem_ctrls.rdPerTurnAround::gmean     89.192956                       # Reads before turning the bus around for writes
system.mem_ctrls.rdPerTurnAround::stdev    161.202623                       # Reads before turning the bus around for writes
system.mem_ctrls.rdPerTurnAround::16-31             1     12.50%     12.50% # Reads before turning the bus around for writes
system.mem_ctrls.rdPerTurnAround::32-47             2     25.00%     37.50% # Reads before turning the bus around for writes
system.mem_ctrls.rdPerTurnAround::48-63             1     12.50%     50.00% # Reads before turning the bus around for writes
system.mem_ctrls.rdPerTurnAround::64-79             1     12.50%     62.50% # Reads before turning the bus around for writes
system.mem_ctrls.rdPerTurnAround::160-175            1     12.50%     75.00% # Reads before turning the bus around for writes
system.mem_ctrls.rdPerTurnAround::352-367            1     12.50%     87.50% # Reads before turning the bus around for writes
system.mem_ctrls.rdPerTurnAround::432-447            1     12.50%    100.00% # Reads before turning the bus around for writes
system.mem_ctrls.rdPerTurnAround::total             8                       # Reads before turning the bus around for writes
system.mem_ctrls.wrPerTurnAround::samples            8                       # Writes before turning the bus around for reads
system.mem_ctrls.wrPerTurnAround::mean      16.250000                       # Writes before turning the bus around for reads
system.mem_ctrls.wrPerTurnAround::gmean     16.237309                       # Writes before turning the bus around for reads
system.mem_ctrls.wrPerTurnAround::stdev      0.707107                       # Writes before turning the bus around for reads
system.mem_ctrls.wrPerTurnAround::16                7     87.50%     87.50% # Writes before turning the bus around for reads
system.mem_ctrls.wrPerTurnAround::18                1     12.50%    100.00% # Writes before turning the bus around for reads
system.mem_ctrls.wrPerTurnAround::total             8                       # Writes before turning the bus around for reads
system.mem_ctrls.bytesReadDRAM                  79424                       # Total number of bytes read from DRAM
system.mem_ctrls.bytesReadWrQ                  129344                       # Total number of bytes read from write queue
system.mem_ctrls.bytesWritten                    8320                       # Total number of bytes written to DRAM
system.mem_ctrls.bytesReadSys                  208768                       # Total read bytes from the system interface side
system.mem_ctrls.bytesWrittenSys               138112                       # Total written bytes from the system interface side
system.mem_ctrls.avgRdBW                       275.21                       # Average DRAM read bandwidth in MiByte/s
system.mem_ctrls.avgWrBW                        28.83                       # Average achieved write bandwidth in MiByte/s
system.mem_ctrls.avgRdBWSys                    723.38                       # Average system read bandwidth in MiByte/s
system.mem_ctrls.avgWrBWSys                    478.56                       # Average system write bandwidth in MiByte/s
system.mem_ctrls.peakBW                      12800.00                       # Theoretical peak bandwidth in MiByte/s
system.mem_ctrls.busUtil                         2.38                       # Data bus utilization in percentage
system.mem_ctrls.busUtilRead                     2.15                       # Data bus utilization in percentage for reads
system.mem_ctrls.busUtilWrite                    0.23                       # Data bus utilization in percentage for writes
system.mem_ctrls.totGap                     288590500                       # Total gap between requests
system.mem_ctrls.avgGap                      53245.48                       # Average gap between requests
system.mem_ctrls.masterReadBytes::.cpu.inst        65856                       # Per-master bytes read from memory
system.mem_ctrls.masterReadBytes::.cpu.data        13568                       # Per-master bytes read from memory
system.mem_ctrls.masterWriteBytes::.writebacks         8320                       # Per-master bytes write to memory
system.mem_ctrls.masterReadRate::.cpu.inst 228192058.877542883158                       # Per-master bytes read from memory rate (Bytes/sec)
system.mem_ctrls.masterReadRate::.cpu.data 47013329.914518065751                       # Per-master bytes read from memory rate (Bytes/sec)
system.mem_ctrls.masterWriteRate::.writebacks 28828928.721166741103                       # Per-master bytes write to memory rate (Bytes/sec)
system.mem_ctrls.masterReadAccesses::.cpu.inst         3050                       # Per-master read serviced memory accesses
system.mem_ctrls.masterReadAccesses::.cpu.data          212                       # Per-master read serviced memory accesses
system.mem_ctrls.masterWriteAccesses::.writebacks         2158                       # Per-master write serviced memory accesses
system.mem_ctrls.masterReadTotalLat::.cpu.inst     24761500                       # Per-master read total memory access latency
system.mem_ctrls.masterReadTotalLat::.cpu.data      6041500                       # Per-master read total memory access latency
system.mem_ctrls.masterWriteTotalLat::.writebacks   4263037000                       # Per-master write total memory access latency
system.mem_ctrls.masterReadAvgLat::.cpu.inst      8118.52                       # Per-master read average memory access latency
system.mem_ctrls.masterReadAvgLat::.cpu.data     28497.64                       # Per-master read average memory access latency
system.mem_ctrls.masterWriteAvgLat::.writebacks   1975457.37                       # Per-master write average memory access latency
system.mem_ctrls.pageHitRate                    82.21                       # Row buffer hit rate, read and write combined
system.mem_ctrls.rank1.actEnergy               735420                       # Energy for activate commands per rank (pJ)
system.mem_ctrls.rank1.preEnergy               387090                       # Energy for precharge commands per rank (pJ)
system.mem_ctrls.rank1.readEnergy             2734620                       # Energy for read commands per rank (pJ)
system.mem_ctrls.rank1.writeEnergy             370620                       # Energy for write commands per rank (pJ)
system.mem_ctrls.rank1.refreshEnergy     22741680.000000                       # Energy for refresh commands per rank (pJ)
system.mem_ctrls.rank1.actBackEnergy         33704670                       # Energy for active background per rank (pJ)
system.mem_ctrls.rank1.preBackEnergy         82439520                       # Energy for precharge background per rank (pJ)
system.mem_ctrls.rank1.actPowerDownEnergy            0                       # Energy for active power-down per rank (pJ)
system.mem_ctrls.rank1.prePowerDownEnergy            0                       # Energy for precharge power-down per rank (pJ)
system.mem_ctrls.rank1.selfRefreshEnergy            0                       # Energy for self refresh per rank (pJ)
system.mem_ctrls.rank1.totalEnergy          143113620                       # Total energy per rank (pJ)
system.mem_ctrls.rank1.averagePower        495.890907                       # Core power per rank (mW)
system.mem_ctrls.rank1.totalIdleTime                0                       # Total Idle time Per DRAM Rank
system.mem_ctrls.rank1.memoryStateTime::IDLE    214036500                       # Time in different power states
system.mem_ctrls.rank1.memoryStateTime::REF      9620000                       # Time in different power states
system.mem_ctrls.rank1.memoryStateTime::SREF            0                       # Time in different power states
system.mem_ctrls.rank1.memoryStateTime::PRE_PDN            0                       # Time in different power states
system.mem_ctrls.rank1.memoryStateTime::ACT     64942500                       # Time in different power states
system.mem_ctrls.rank1.memoryStateTime::ACT_PDN            0                       # Time in different power states
system.mem_ctrls.rank0.actEnergy               835380                       # Energy for activate commands per rank (pJ)
system.mem_ctrls.rank0.preEnergy               440220                       # Energy for precharge commands per rank (pJ)
system.mem_ctrls.rank0.readEnergy             6126120                       # Energy for read commands per rank (pJ)
system.mem_ctrls.rank0.writeEnergy             307980                       # Energy for write commands per rank (pJ)
system.mem_ctrls.rank0.refreshEnergy     22741680.000000                       # Energy for refresh commands per rank (pJ)
system.mem_ctrls.rank0.actBackEnergy        127018230                       # Energy for active background per rank (pJ)
system.mem_ctrls.rank0.preBackEnergy          3859680                       # Energy for precharge background per rank (pJ)
system.mem_ctrls.rank0.actPowerDownEnergy            0                       # Energy for active power-down per rank (pJ)
system.mem_ctrls.rank0.prePowerDownEnergy            0                       # Energy for precharge power-down per rank (pJ)
system.mem_ctrls.rank0.selfRefreshEnergy            0                       # Energy for self refresh per rank (pJ)
system.mem_ctrls.rank0.totalEnergy          161329290                       # Total energy per rank (pJ)
system.mem_ctrls.rank0.averagePower        559.008486                       # Core power per rank (mW)
system.mem_ctrls.rank0.totalIdleTime                0                       # Total Idle time Per DRAM Rank
system.mem_ctrls.rank0.memoryStateTime::IDLE      9029500                       # Time in different power states
system.mem_ctrls.rank0.memoryStateTime::REF      9620000                       # Time in different power states
system.mem_ctrls.rank0.memoryStateTime::SREF            0                       # Time in different power states
system.mem_ctrls.rank0.memoryStateTime::PRE_PDN            0                       # Time in different power states
system.mem_ctrls.rank0.memoryStateTime::ACT    269949500                       # Time in different power states
system.mem_ctrls.rank0.memoryStateTime::ACT_PDN            0                       # Time in different power states
system.cpu_clk_domain.clock                       500                       # Clock period in ticks
system.cpu.pwrStateResidencyTicks::ON       288599000                       # Cumulative time (in ticks) in various power states
system.cpu.icache.pwrStateResidencyTicks::UNDEFINED    288599000                       # Cumulative time (in ticks) in various power states
system.cpu.icache.demand_hits::.cpu.inst        92071                       # number of demand (read+write) hits
system.cpu.icache.demand_hits::total            92071                       # number of demand (read+write) hits
system.cpu.icache.overall_hits::.cpu.inst        92071                       # number of overall hits
system.cpu.icache.overall_hits::total           92071                       # number of overall hits
system.cpu.icache.demand_misses::.cpu.inst         3050                       # number of demand (read+write) misses
system.cpu.icache.demand_misses::total           3050                       # number of demand (read+write) misses
system.cpu.icache.overall_misses::.cpu.inst         3050                       # number of overall misses
system.cpu.icache.overall_misses::total          3050                       # number of overall misses
system.cpu.icache.demand_miss_latency::.cpu.inst    105624000                       # number of demand (read+write) miss cycles
system.cpu.icache.demand_miss_latency::total    105624000                       # number of demand (read+write) miss cycles
system.cpu.icache.overall_miss_latency::.cpu.inst    105624000                       # number of overall miss cycles
system.cpu.icache.overall_miss_latency::total    105624000                       # number of overall miss cycles
system.cpu.icache.demand_accesses::.cpu.inst        95121                       # number of demand (read+write) accesses
system.cpu.icache.demand_accesses::total        95121                       # number of demand (read+write) accesses
system.cpu.icache.overall_accesses::.cpu.inst        95121                       # number of overall (read+write) accesses
system.cpu.icache.overall_accesses::total        95121                       # number of overall (read+write) accesses
system.cpu.icache.demand_miss_rate::.cpu.inst     0.032064                       # miss rate for demand accesses
system.cpu.icache.demand_miss_rate::total     0.032064                       # miss rate for demand accesses
system.cpu.icache.overall_miss_rate::.cpu.inst     0.032064                       # miss rate for overall accesses
system.cpu.icache.overall_miss_rate::total     0.032064                       # miss rate for overall accesses
system.cpu.icache.demand_avg_miss_latency::.cpu.inst 34630.819672                       # average overall miss latency
system.cpu.icache.demand_avg_miss_latency::total 34630.819672                       # average overall miss latency
system.cpu.icache.overall_avg_miss_latency::.cpu.inst 34630.819672                       # average overall miss latency
system.cpu.icache.overall_avg_miss_latency::total 34630.819672                       # average overall miss latency
system.cpu.icache.blocked_cycles::no_mshrs            0                       # number of cycles access was blocked
system.cpu.icache.blocked_cycles::no_targets            0                       # number of cycles access was blocked
system.cpu.icache.blocked::no_mshrs                 0                       # number of cycles access was blocked
system.cpu.icache.blocked::no_targets               0                       # number of cycles access was blocked
system.cpu.icache.avg_blocked_cycles::no_mshrs          nan                       # average number of cycles each access was blocked
system.cpu.icache.avg_blocked_cycles::no_targets          nan                       # average number of cycles each access was blocked
system.cpu.icache.writebacks::.writebacks         2714                       # number of writebacks
system.cpu.icache.writebacks::total              2714                       # number of writebacks
system.cpu.icache.demand_mshr_misses::.cpu.inst         3050                       # number of demand (read+write) MSHR misses
system.cpu.icache.demand_mshr_misses::total         3050                       # number of demand (read+write) MSHR misses
system.cpu.icache.overall_mshr_misses::.cpu.inst         3050                       # number of overall MSHR misses
system.cpu.icache.overall_mshr_misses::total         3050                       # number of overall MSHR misses
system.cpu.icache.demand_mshr_miss_latency::.cpu.inst    102574000                       # number of demand (read+write) MSHR miss cycles
system.cpu.icache.demand_mshr_miss_latency::total    102574000                       # number of demand (read+write) MSHR miss cycles
system.cpu.icache.overall_mshr_miss_latency::.cpu.inst    102574000                       # number of overall MSHR miss cycles
system.cpu.icache.overall_mshr_miss_latency::total    102574000                       # number of overall MSHR miss cycles
system.cpu.icache.demand_mshr_miss_rate::.cpu.inst     0.032064                       # mshr miss rate for demand accesses
system.cpu.icache.demand_mshr_miss_rate::total     0.032064                       # mshr miss rate for demand accesses
system.cpu.icache.overall_mshr_miss_rate::.cpu.inst     0.032064                       # mshr miss rate for overall accesses
system.cpu.icache.overall_mshr_miss_rate::total     0.032064                       # mshr miss rate for overall accesses
system.cpu.icache.demand_avg_mshr_miss_latency::.cpu.inst 33630.819672                       # average overall mshr miss latency
system.cpu.icache.demand_avg_mshr_miss_latency::total 33630.819672                       # average overall mshr miss latency
system.cpu.icache.overall_avg_mshr_miss_latency::.cpu.inst 33630.819672                       # average overall mshr miss latency
system.cpu.icache.overall_avg_mshr_miss_latency::total 33630.819672                       # average overall mshr miss latency
system.cpu.icache.replacements                   2714                       # number of replacements
system.cpu.icache.ReadReq_hits::.cpu.inst        92071                       # number of ReadReq hits
system.cpu.icache.ReadReq_hits::total           92071                       # number of ReadReq hits
system.cpu.icache.ReadReq_misses::.cpu.inst         3050                       # number of ReadReq misses
system.cpu.icache.ReadReq_misses::total          3050                       # number of ReadReq misses
system.cpu.icache.ReadReq_miss_latency::.cpu.inst    105624000                       # number of ReadReq miss cycles
system.cpu.icache.ReadReq_miss_latency::total    105624000                       # number of ReadReq miss cycles
system.cpu.icache.ReadReq_accesses::.cpu.inst        95121                       # number of ReadReq accesses(hits+misses)
system.cpu.icache.ReadReq_accesses::total        95121                       # number of ReadReq accesses(hits+misses)
system.cpu.icache.ReadReq_miss_rate::.cpu.inst     0.032064                       # miss rate for ReadReq accesses
system.cpu.icache.ReadReq_miss_rate::total     0.032064                       # miss rate for ReadReq accesses
system.cpu.icache.ReadReq_avg_miss_latency::.cpu.inst 34630.819672                       # average ReadReq miss latency
system.cpu.icache.ReadReq_avg_miss_latency::total 34630.819672                       # average ReadReq miss latency
system.cpu.icache.ReadReq_mshr_misses::.cpu.inst         3050                       # number of ReadReq MSHR misses
system.cpu.icache.ReadReq_mshr_misses::total         3050                       # number of ReadReq MSHR misses
system.cpu.icache.ReadReq_mshr_miss_latency::.cpu.inst    102574000                       # number of ReadReq MSHR miss cycles
system.cpu.icache.ReadReq_mshr_miss_latency::total    102574000                       # number of ReadReq MSHR miss cycles
system.cpu.icache.ReadReq_mshr_miss_rate::.cpu.inst     0.032064                       # mshr miss rate for ReadReq accesses
system.cpu.icache.ReadReq_mshr_miss_rate::total     0.032064                       # mshr miss rate for ReadReq accesses
system.cpu.icache.ReadReq_avg_mshr_miss_latency::.cpu.inst 33630.819672                       # average ReadReq mshr miss latency
system.cpu.icache.ReadReq_avg_mshr_miss_latency::total 33630.819672                       # average ReadReq mshr miss latency
system.cpu.icache.tags.pwrStateResidencyTicks::UNDEFINED    288599000                       # Cumulative time (in ticks) in various power states
system.cpu.icache.tags.tagsinuse           291.886566                       # Cycle average of tags in use
system.cpu.icache.tags.total_refs               95121                       # Total number of references to valid blocks.
system.cpu.icache.tags.sampled_refs              3050                       # Sample count of references to valid blocks.
system.cpu.icache.tags.avg_refs             31.187213                       # Average number of references to valid blocks.
system.cpu.icache.tags.warmup_cycle             77000                       # Cycle when the warmup percentage was hit.
system.cpu.icache.tags.occ_blocks::.cpu.inst   291.886566                       # Average occupied blocks per requestor
system.cpu.icache.tags.occ_percent::.cpu.inst     0.570091                       # Average percentage of cache occupancy
system.cpu.icache.tags.occ_percent::total     0.570091                       # Average percentage of cache occupancy
system.cpu.icache.tags.occ_task_id_blocks::1024          336                       # Occupied blocks per task id
system.cpu.icache.tags.age_task_id_blocks_1024::0           52                       # Occupied blocks per task id
system.cpu.icache.tags.age_task_id_blocks_1024::1            2                       # Occupied blocks per task id
system.cpu.icache.tags.age_task_id_blocks_1024::2          282                       # Occupied blocks per task id
system.cpu.icache.tags.occ_task_id_percent::1024     0.656250                       # Percentage of cache occupancy per task id
system.cpu.icache.tags.tag_accesses            193292                       # Number of tag accesses
system.cpu.icache.tags.data_accesses           193292                       # Number of data accesses
system.cpu.dtb.walker.pwrStateResidencyTicks::UNDEFINED    288599000                       # Cumulative time (in ticks) in various power states
system.cpu.dtb.stage2_mmu.stage2_tlb.walker.pwrStateResidencyTicks::UNDEFINED    288599000                       # Cumulative time (in ticks) in various power states
system.cpu.dcache.pwrStateResidencyTicks::UNDEFINED    288599000                       # Cumulative time (in ticks) in various power states
system.cpu.dcache.demand_hits::.cpu.data       104862                       # number of demand (read+write) hits
system.cpu.dcache.demand_hits::total           104862                       # number of demand (read+write) hits
system.cpu.dcache.overall_hits::.cpu.data       104891                       # number of overall hits
system.cpu.dcache.overall_hits::total          104891                       # number of overall hits
system.cpu.dcache.demand_misses::.cpu.data          259                       # number of demand (read+write) misses
system.cpu.dcache.demand_misses::total            259                       # number of demand (read+write) misses
system.cpu.dcache.overall_misses::.cpu.data          272                       # number of overall misses
system.cpu.dcache.overall_misses::total           272                       # number of overall misses
system.cpu.dcache.demand_miss_latency::.cpu.data     15707000                       # number of demand (read+write) miss cycles
system.cpu.dcache.demand_miss_latency::total     15707000                       # number of demand (read+write) miss cycles
system.cpu.dcache.overall_miss_latency::.cpu.data     15707000                       # number of overall miss cycles
system.cpu.dcache.overall_miss_latency::total     15707000                       # number of overall miss cycles
system.cpu.dcache.demand_accesses::.cpu.data       105121                       # number of demand (read+write) accesses
system.cpu.dcache.demand_accesses::total       105121                       # number of demand (read+write) accesses
system.cpu.dcache.overall_accesses::.cpu.data       105163                       # number of overall (read+write) accesses
system.cpu.dcache.overall_accesses::total       105163                       # number of overall (read+write) accesses
system.cpu.dcache.demand_miss_rate::.cpu.data     0.002464                       # miss rate for demand accesses
system.cpu.dcache.demand_miss_rate::total     0.002464                       # miss rate for demand accesses
system.cpu.dcache.overall_miss_rate::.cpu.data     0.002586                       # miss rate for overall accesses
system.cpu.dcache.overall_miss_rate::total     0.002586                       # miss rate for overall accesses
system.cpu.dcache.demand_avg_miss_latency::.cpu.data 60644.787645                       # average overall miss latency
system.cpu.dcache.demand_avg_miss_latency::total 60644.787645                       # average overall miss latency
system.cpu.dcache.overall_avg_miss_latency::.cpu.data 57746.323529                       # average overall miss latency
system.cpu.dcache.overall_avg_miss_latency::total 57746.323529                       # average overall miss latency
system.cpu.dcache.blocked_cycles::no_mshrs            0                       # number of cycles access was blocked
system.cpu.dcache.blocked_cycles::no_targets            0                       # number of cycles access was blocked
system.cpu.dcache.blocked::no_mshrs                 0                       # number of cycles access was blocked
system.cpu.dcache.blocked::no_targets               0                       # number of cycles access was blocked
system.cpu.dcache.avg_blocked_cycles::no_mshrs          nan                       # average number of cycles each access was blocked
system.cpu.dcache.avg_blocked_cycles::no_targets          nan                       # average number of cycles each access was blocked
system.cpu.dcache.demand_mshr_hits::.cpu.data           58                       # number of demand (read+write) MSHR hits
system.cpu.dcache.demand_mshr_hits::total           58                       # number of demand (read+write) MSHR hits
system.cpu.dcache.overall_mshr_hits::.cpu.data           58                       # number of overall MSHR hits
system.cpu.dcache.overall_mshr_hits::total           58                       # number of overall MSHR hits
system.cpu.dcache.demand_mshr_misses::.cpu.data          201                       # number of demand (read+write) MSHR misses
system.cpu.dcache.demand_mshr_misses::total          201                       # number of demand (read+write) MSHR misses
system.cpu.dcache.overall_mshr_misses::.cpu.data          211                       # number of overall MSHR misses
system.cpu.dcache.overall_mshr_misses::total          211                       # number of overall MSHR misses
system.cpu.dcache.demand_mshr_miss_latency::.cpu.data     12090500                       # number of demand (read+write) MSHR miss cycles
system.cpu.dcache.demand_mshr_miss_latency::total     12090500                       # number of demand (read+write) MSHR miss cycles
system.cpu.dcache.overall_mshr_miss_latency::.cpu.data     12717500                       # number of overall MSHR miss cycles
system.cpu.dcache.overall_mshr_miss_latency::total     12717500                       # number of overall MSHR miss cycles
system.cpu.dcache.demand_mshr_miss_rate::.cpu.data     0.001912                       # mshr miss rate for demand accesses
system.cpu.dcache.demand_mshr_miss_rate::total     0.001912                       # mshr miss rate for demand accesses
system.cpu.dcache.overall_mshr_miss_rate::.cpu.data     0.002006                       # mshr miss rate for overall accesses
system.cpu.dcache.overall_mshr_miss_rate::total     0.002006                       # mshr miss rate for overall accesses
system.cpu.dcache.demand_avg_mshr_miss_latency::.cpu.data 60151.741294                       # average overall mshr miss latency
system.cpu.dcache.demand_avg_mshr_miss_latency::total 60151.741294                       # average overall mshr miss latency
system.cpu.dcache.overall_avg_mshr_miss_latency::.cpu.data 60272.511848                       # average overall mshr miss latency
system.cpu.dcache.overall_avg_mshr_miss_latency::total 60272.511848                       # average overall mshr miss latency
system.cpu.dcache.replacements                      2                       # number of replacements
system.cpu.dcache.ReadReq_hits::.cpu.data        58542                       # number of ReadReq hits
system.cpu.dcache.ReadReq_hits::total           58542                       # number of ReadReq hits
system.cpu.dcache.ReadReq_misses::.cpu.data          112                       # number of ReadReq misses
system.cpu.dcache.ReadReq_misses::total           112                       # number of ReadReq misses
system.cpu.dcache.ReadReq_miss_latency::.cpu.data      7276500                       # number of ReadReq miss cycles
system.cpu.dcache.ReadReq_miss_latency::total      7276500                       # number of ReadReq miss cycles
system.cpu.dcache.ReadReq_accesses::.cpu.data        58654                       # number of ReadReq accesses(hits+misses)
system.cpu.dcache.ReadReq_accesses::total        58654                       # number of ReadReq accesses(hits+misses)
system.cpu.dcache.ReadReq_miss_rate::.cpu.data     0.001910                       # miss rate for ReadReq accesses
system.cpu.dcache.ReadReq_miss_rate::total     0.001910                       # miss rate for ReadReq accesses
system.cpu.dcache.ReadReq_avg_miss_latency::.cpu.data 64968.750000                       # average ReadReq miss latency
system.cpu.dcache.ReadReq_avg_miss_latency::total 64968.750000                       # average ReadReq miss latency
system.cpu.dcache.ReadReq_mshr_hits::.cpu.data            9                       # number of ReadReq MSHR hits
system.cpu.dcache.ReadReq_mshr_hits::total            9                       # number of ReadReq MSHR hits
system.cpu.dcache.ReadReq_mshr_misses::.cpu.data          103                       # number of ReadReq MSHR misses
system.cpu.dcache.ReadReq_mshr_misses::total          103                       # number of ReadReq MSHR misses
system.cpu.dcache.ReadReq_mshr_miss_latency::.cpu.data      6627500                       # number of ReadReq MSHR miss cycles
system.cpu.dcache.ReadReq_mshr_miss_latency::total      6627500                       # number of ReadReq MSHR miss cycles
system.cpu.dcache.ReadReq_mshr_miss_rate::.cpu.data     0.001756                       # mshr miss rate for ReadReq accesses
system.cpu.dcache.ReadReq_mshr_miss_rate::total     0.001756                       # mshr miss rate for ReadReq accesses
system.cpu.dcache.ReadReq_avg_mshr_miss_latency::.cpu.data 64344.660194                       # average ReadReq mshr miss latency
system.cpu.dcache.ReadReq_avg_mshr_miss_latency::total 64344.660194                       # average ReadReq mshr miss latency
system.cpu.dcache.WriteReq_hits::.cpu.data        46320                       # number of WriteReq hits
system.cpu.dcache.WriteReq_hits::total          46320                       # number of WriteReq hits
system.cpu.dcache.WriteReq_misses::.cpu.data          147                       # number of WriteReq misses
system.cpu.dcache.WriteReq_misses::total          147                       # number of WriteReq misses
system.cpu.dcache.WriteReq_miss_latency::.cpu.data      8430500                       # number of WriteReq miss cycles
system.cpu.dcache.WriteReq_miss_latency::total      8430500                       # number of WriteReq miss cycles
system.cpu.dcache.WriteReq_accesses::.cpu.data        46467                       # number of WriteReq accesses(hits+misses)
system.cpu.dcache.WriteReq_accesses::total        46467                       # number of WriteReq accesses(hits+misses)
system.cpu.dcache.WriteReq_miss_rate::.cpu.data     0.003164                       # miss rate for WriteReq accesses
system.cpu.dcache.WriteReq_miss_rate::total     0.003164                       # miss rate for WriteReq accesses
system.cpu.dcache.WriteReq_avg_miss_latency::.cpu.data 57350.340136                       # average WriteReq miss latency
system.cpu.dcache.WriteReq_avg_miss_latency::total 57350.340136                       # average WriteReq miss latency
system.cpu.dcache.WriteReq_mshr_hits::.cpu.data           49                       # number of WriteReq MSHR hits
system.cpu.dcache.WriteReq_mshr_hits::total           49                       # number of WriteReq MSHR hits
system.cpu.dcache.WriteReq_mshr_misses::.cpu.data           98                       # number of WriteReq MSHR misses
system.cpu.dcache.WriteReq_mshr_misses::total           98                       # number of WriteReq MSHR misses
system.cpu.dcache.WriteReq_mshr_miss_latency::.cpu.data      5463000                       # number of WriteReq MSHR miss cycles
system.cpu.dcache.WriteReq_mshr_miss_latency::total      5463000                       # number of WriteReq MSHR miss cycles
system.cpu.dcache.WriteReq_mshr_miss_rate::.cpu.data     0.002109                       # mshr miss rate for WriteReq accesses
system.cpu.dcache.WriteReq_mshr_miss_rate::total     0.002109                       # mshr miss rate for WriteReq accesses
system.cpu.dcache.WriteReq_avg_mshr_miss_latency::.cpu.data 55744.897959                       # average WriteReq mshr miss latency
system.cpu.dcache.WriteReq_avg_mshr_miss_latency::total 55744.897959                       # average WriteReq mshr miss latency
system.cpu.dcache.SoftPFReq_hits::.cpu.data           29                       # number of SoftPFReq hits
system.cpu.dcache.SoftPFReq_hits::total            29                       # number of SoftPFReq hits
system.cpu.dcache.SoftPFReq_misses::.cpu.data           13                       # number of SoftPFReq misses
system.cpu.dcache.SoftPFReq_misses::total           13                       # number of SoftPFReq misses
system.cpu.dcache.SoftPFReq_accesses::.cpu.data           42                       # number of SoftPFReq accesses(hits+misses)
system.cpu.dcache.SoftPFReq_accesses::total           42                       # number of SoftPFReq accesses(hits+misses)
system.cpu.dcache.SoftPFReq_miss_rate::.cpu.data     0.309524                       # miss rate for SoftPFReq accesses
system.cpu.dcache.SoftPFReq_miss_rate::total     0.309524                       # miss rate for SoftPFReq accesses
system.cpu.dcache.SoftPFReq_mshr_misses::.cpu.data           10                       # number of SoftPFReq MSHR misses
system.cpu.dcache.SoftPFReq_mshr_misses::total           10                       # number of SoftPFReq MSHR misses
system.cpu.dcache.SoftPFReq_mshr_miss_latency::.cpu.data       627000                       # number of SoftPFReq MSHR miss cycles
system.cpu.dcache.SoftPFReq_mshr_miss_latency::total       627000                       # number of SoftPFReq MSHR miss cycles
system.cpu.dcache.SoftPFReq_mshr_miss_rate::.cpu.data     0.238095                       # mshr miss rate for SoftPFReq accesses
system.cpu.dcache.SoftPFReq_mshr_miss_rate::total     0.238095                       # mshr miss rate for SoftPFReq accesses
system.cpu.dcache.SoftPFReq_avg_mshr_miss_latency::.cpu.data        62700                       # average SoftPFReq mshr miss latency
system.cpu.dcache.SoftPFReq_avg_mshr_miss_latency::total        62700                       # average SoftPFReq mshr miss latency
system.cpu.dcache.LoadLockedReq_hits::.cpu.data         1091                       # number of LoadLockedReq hits
system.cpu.dcache.LoadLockedReq_hits::total         1091                       # number of LoadLockedReq hits
system.cpu.dcache.LoadLockedReq_misses::.cpu.data            1                       # number of LoadLockedReq misses
system.cpu.dcache.LoadLockedReq_misses::total            1                       # number of LoadLockedReq misses
system.cpu.dcache.LoadLockedReq_miss_latency::.cpu.data        53500                       # number of LoadLockedReq miss cycles
system.cpu.dcache.LoadLockedReq_miss_latency::total        53500                       # number of LoadLockedReq miss cycles
system.cpu.dcache.LoadLockedReq_accesses::.cpu.data         1092                       # number of LoadLockedReq accesses(hits+misses)
system.cpu.dcache.LoadLockedReq_accesses::total         1092                       # number of LoadLockedReq accesses(hits+misses)
system.cpu.dcache.LoadLockedReq_miss_rate::.cpu.data     0.000916                       # miss rate for LoadLockedReq accesses
system.cpu.dcache.LoadLockedReq_miss_rate::total     0.000916                       # miss rate for LoadLockedReq accesses
system.cpu.dcache.LoadLockedReq_avg_miss_latency::.cpu.data        53500                       # average LoadLockedReq miss latency
system.cpu.dcache.LoadLockedReq_avg_miss_latency::total        53500                       # average LoadLockedReq miss latency
system.cpu.dcache.LoadLockedReq_mshr_misses::.cpu.data            1                       # number of LoadLockedReq MSHR misses
system.cpu.dcache.LoadLockedReq_mshr_misses::total            1                       # number of LoadLockedReq MSHR misses
system.cpu.dcache.LoadLockedReq_mshr_miss_latency::.cpu.data        52500                       # number of LoadLockedReq MSHR miss cycles
system.cpu.dcache.LoadLockedReq_mshr_miss_latency::total        52500                       # number of LoadLockedReq MSHR miss cycles
system.cpu.dcache.LoadLockedReq_mshr_miss_rate::.cpu.data     0.000916                       # mshr miss rate for LoadLockedReq accesses
system.cpu.dcache.LoadLockedReq_mshr_miss_rate::total     0.000916                       # mshr miss rate for LoadLockedReq accesses
system.cpu.dcache.LoadLockedReq_avg_mshr_miss_latency::.cpu.data        52500                       # average LoadLockedReq mshr miss latency
system.cpu.dcache.LoadLockedReq_avg_mshr_miss_latency::total        52500                       # average LoadLockedReq mshr miss latency
system.cpu.dcache.StoreCondReq_hits::.cpu.data         1092                       # number of StoreCondReq hits
system.cpu.dcache.StoreCondReq_hits::total         1092                       # number of StoreCondReq hits
system.cpu.dcache.StoreCondReq_accesses::.cpu.data         1092                       # number of StoreCondReq accesses(hits+misses)
system.cpu.dcache.StoreCondReq_accesses::total         1092                       # number of StoreCondReq accesses(hits+misses)
system.cpu.dcache.tags.pwrStateResidencyTicks::UNDEFINED    288599000                       # Cumulative time (in ticks) in various power states
system.cpu.dcache.tags.tagsinuse           180.901691                       # Cycle average of tags in use
system.cpu.dcache.tags.total_refs              107286                       # Total number of references to valid blocks.
system.cpu.dcache.tags.sampled_refs               212                       # Sample count of references to valid blocks.
system.cpu.dcache.tags.avg_refs            506.066038                       # Average number of references to valid blocks.
system.cpu.dcache.tags.warmup_cycle            145000                       # Cycle when the warmup percentage was hit.
system.cpu.dcache.tags.occ_blocks::.cpu.data   180.901691                       # Average occupied blocks per requestor
system.cpu.dcache.tags.occ_percent::.cpu.data     0.176662                       # Average percentage of cache occupancy
system.cpu.dcache.tags.occ_percent::total     0.176662                       # Average percentage of cache occupancy
system.cpu.dcache.tags.occ_task_id_blocks::1024          210                       # Occupied blocks per task id
system.cpu.dcache.tags.age_task_id_blocks_1024::0           15                       # Occupied blocks per task id
system.cpu.dcache.tags.age_task_id_blocks_1024::1            1                       # Occupied blocks per task id
system.cpu.dcache.tags.age_task_id_blocks_1024::2          194                       # Occupied blocks per task id
system.cpu.dcache.tags.occ_task_id_percent::1024     0.205078                       # Percentage of cache occupancy per task id
system.cpu.dcache.tags.tag_accesses            214906                       # Number of tag accesses
system.cpu.dcache.tags.data_accesses           214906                       # Number of data accesses
system.cpu.itb.walker.pwrStateResidencyTicks::UNDEFINED    288599000                       # Cumulative time (in ticks) in various power states
system.cpu.itb.stage2_mmu.stage2_tlb.walker.pwrStateResidencyTicks::UNDEFINED    288599000                       # Cumulative time (in ticks) in various power states

---------- End Simulation Statistics   ----------
