
---------- Begin Simulation Statistics ----------
final_tick                                  471367000                       # Number of ticks from beginning of simulation (restored from checkpoints and never reset)
host_inst_rate                                 380158                       # Simulator instruction rate (inst/s)
host_mem_usage                                 691076                       # Number of bytes of host memory used
host_op_rate                                   444974                       # Simulator op (including micro ops) rate (op/s)
host_seconds                                     0.78                       # Real time elapsed on the host
host_tick_rate                              603094885                       # Simulator tick rate (ticks/s)
sim_freq                                 1000000000000                       # Frequency of simulated ticks
sim_insts                                      297071                       # Number of instructions simulated
sim_ops                                        347778                       # Number of ops (including micro ops) simulated
sim_seconds                                  0.000471                       # Number of seconds simulated
sim_ticks                                   471367000                       # Number of ticks simulated
system.cpu.branchPred.BTBCorrect                    0                       # Number of correct BTB predictions (this stat may not work properly.
system.cpu.branchPred.BTBHitPct             44.870272                       # BTB Hit Percentage
system.cpu.branchPred.BTBHits                   22292                       # Number of BTB hits
system.cpu.branchPred.BTBLookups                49681                       # Number of BTB lookups
system.cpu.branchPred.RASInCorrect                  5                       # Number of incorrect RAS predictions.
system.cpu.branchPred.condIncorrect              2740                       # Number of conditional branches incorrect
system.cpu.branchPred.condPredicted             40647                       # Number of conditional branches predicted
system.cpu.branchPred.indirectHits               3023                       # Number of indirect target hits.
system.cpu.branchPred.indirectLookups            4904                       # Number of indirect predictor lookups.
system.cpu.branchPred.indirectMisses             1881                       # Number of indirect misses.
system.cpu.branchPred.lookups                   61636                       # Number of BP lookups
system.cpu.branchPred.usedRAS                    6395                       # Number of times the RAS was used to get a target.
system.cpu.branchPredindirectMispredicted          125                       # Number of mispredicted indirect branches.
system.cpu.committedInsts                      297071                       # Number of instructions committed
system.cpu.committedOps                        347778                       # Number of ops (including micro ops) committed
system.cpu.cpi                               1.586715                       # CPI: cycles per instruction
system.cpu.discardedOps                          5584                       # Number of ops (including micro ops) which were discarded before commit
system.cpu.dtb.accesses                             0                       # DTB accesses
system.cpu.dtb.align_faults                         0                       # Number of TLB faults due to alignment restrictions
system.cpu.dtb.domain_faults                        0                       # Number of TLB faults due to domain restrictions
system.cpu.dtb.flush_entries                        0                       # Number of entries that have been flushed from TLB
system.cpu.dtb.flush_tlb                            0                       # Number of times complete TLB was flushed
system.cpu.dtb.flush_tlb_asid                       0                       # Number of times TLB was flushed by ASID
system.cpu.dtb.flush_tlb_mva                        0                       # Number of times TLB was flushed by MVA
system.cpu.dtb.flush_tlb_mva_asid                   0                       # Number of times TLB was flushed by MVA & ASID
system.cpu.dtb.hits                                 0                       # DTB hits
system.cpu.dtb.inst_accesses                        0                       # ITB inst accesses
system.cpu.dtb.inst_hits                            0                       # ITB inst hits
system.cpu.dtb.inst_misses                          0                       # ITB inst misses
system.cpu.dtb.misses                               0                       # DTB misses
system.cpu.dtb.perms_faults                         0                       # Number of TLB faults due to permissions restrictions
system.cpu.dtb.prefetch_faults                      0                       # Number of TLB faults due to prefetch
system.cpu.dtb.read_accesses                        0                       # DTB read accesses
system.cpu.dtb.read_hits                            0                       # DTB read hits
system.cpu.dtb.read_misses                          0                       # DTB read misses
system.cpu.dtb.stage2_mmu.stage2_tlb.accesses            0                       # DTB accesses
system.cpu.dtb.stage2_mmu.stage2_tlb.align_faults            0                       # Number of TLB faults due to alignment restrictions
system.cpu.dtb.stage2_mmu.stage2_tlb.domain_faults            0                       # Number of TLB faults due to domain restrictions
system.cpu.dtb.stage2_mmu.stage2_tlb.flush_entries            0                       # Number of entries that have been flushed from TLB
system.cpu.dtb.stage2_mmu.stage2_tlb.flush_tlb            0                       # Number of times complete TLB was flushed
system.cpu.dtb.stage2_mmu.stage2_tlb.flush_tlb_asid            0                       # Number of times TLB was flushed by ASID
system.cpu.dtb.stage2_mmu.stage2_tlb.flush_tlb_mva            0                       # Number of times TLB was flushed by MVA
system.cpu.dtb.stage2_mmu.stage2_tlb.flush_tlb_mva_asid            0                       # Number of times TLB was flushed by MVA & ASID
system.cpu.dtb.stage2_mmu.stage2_tlb.hits            0                       # DTB hits
system.cpu.dtb.stage2_mmu.stage2_tlb.inst_accesses            0                       # ITB inst accesses
system.cpu.dtb.stage2_mmu.stage2_tlb.inst_hits            0                       # ITB inst hits
system.cpu.dtb.stage2_mmu.stage2_tlb.inst_misses            0                       # ITB inst misses
system.cpu.dtb.stage2_mmu.stage2_tlb.misses            0                       # DTB misses
system.cpu.dtb.stage2_mmu.stage2_tlb.perms_faults            0                       # Number of TLB faults due to permissions restrictions
system.cpu.dtb.stage2_mmu.stage2_tlb.prefetch_faults            0                       # Number of TLB faults due to prefetch
system.cpu.dtb.stage2_mmu.stage2_tlb.read_accesses            0                       # DTB read accesses
system.cpu.dtb.stage2_mmu.stage2_tlb.read_hits            0                       # DTB read hits
system.cpu.dtb.stage2_mmu.stage2_tlb.read_misses            0                       # DTB read misses
system.cpu.dtb.stage2_mmu.stage2_tlb.walker.walkRequestOrigin_Requested::Data            0                       # Table walker requests started/completed, data/inst
system.cpu.dtb.stage2_mmu.stage2_tlb.walker.walkRequestOrigin_Requested::Inst            0                       # Table walker requests started/completed, data/inst
system.cpu.dtb.stage2_mmu.stage2_tlb.walker.walkRequestOrigin_Requested::total            0                       # Table walker requests started/completed, data/inst
system.cpu.dtb.stage2_mmu.stage2_tlb.walker.walkRequestOrigin_Completed::Data            0                       # Table walker requests started/completed, data/inst
system.cpu.dtb.stage2_mmu.stage2_tlb.walker.walkRequestOrigin_Completed::Inst            0                       # Table walker requests started/completed, data/inst
system.cpu.dtb.stage2_mmu.stage2_tlb.walker.walkRequestOrigin_Completed::total            0                       # Table walker requests started/completed, data/inst
system.cpu.dtb.stage2_mmu.stage2_tlb.walker.walkRequestOrigin::total            0                       # Table walker requests started/completed, data/inst
system.cpu.dtb.stage2_mmu.stage2_tlb.walker.walks            0                       # Table walker walks requested
system.cpu.dtb.stage2_mmu.stage2_tlb.write_accesses            0                       # DTB write accesses
system.cpu.dtb.stage2_mmu.stage2_tlb.write_hits            0                       # DTB write hits
system.cpu.dtb.stage2_mmu.stage2_tlb.write_misses            0                       # DTB write misses
system.cpu.dtb.walker.walkRequestOrigin_Requested::Data            0                       # Table walker requests started/completed, data/inst
system.cpu.dtb.walker.walkRequestOrigin_Requested::Inst            0                       # Table walker requests started/completed, data/inst
system.cpu.dtb.walker.walkRequestOrigin_Requested::total            0                       # Table walker requests started/completed, data/inst
system.cpu.dtb.walker.walkRequestOrigin_Completed::Data            0                       # Table walker requests started/completed, data/inst
system.cpu.dtb.walker.walkRequestOrigin_Completed::Inst            0                       # Table walker requests started/completed, data/inst
system.cpu.dtb.walker.walkRequestOrigin_Completed::total            0                       # Table walker requests started/completed, data/inst
system.cpu.dtb.walker.walkRequestOrigin::total            0                       # Table walker requests started/completed, data/inst
system.cpu.dtb.walker.walks                         0                       # Table walker walks requested
system.cpu.dtb.write_accesses                       0                       # DTB write accesses
system.cpu.dtb.write_hits                           0                       # DTB write hits
system.cpu.dtb.write_misses                         0                       # DTB write misses
system.cpu.fetch2.amo_instructions                  0                       # Number of memory atomic instructions successfully decoded
system.cpu.fetch2.fp_instructions                   0                       # Number of floating point instructions successfully decoded
system.cpu.fetch2.int_instructions             182876                       # Number of integer instructions successfully decoded
system.cpu.fetch2.load_instructions             45504                       # Number of memory load instructions successfully decoded
system.cpu.fetch2.store_instructions            22157                       # Number of memory store instructions successfully decoded
system.cpu.fetch2.vec_instructions                  0                       # Number of SIMD instructions successfully decoded
system.cpu.idleCycles                           87540                       # Total number of cycles that the object has spent stopped
system.cpu.ipc                               0.630233                       # IPC: instructions per cycle
system.cpu.itb.accesses                             0                       # DTB accesses
system.cpu.itb.align_faults                         0                       # Number of TLB faults due to alignment restrictions
system.cpu.itb.domain_faults                        0                       # Number of TLB faults due to domain restrictions
system.cpu.itb.flush_entries                        0                       # Number of entries that have been flushed from TLB
system.cpu.itb.flush_tlb                            0                       # Number of times complete TLB was flushed
system.cpu.itb.flush_tlb_asid                       0                       # Number of times TLB was flushed by ASID
system.cpu.itb.flush_tlb_mva                        0                       # Number of times TLB was flushed by MVA
system.cpu.itb.flush_tlb_mva_asid                   0                       # Number of times TLB was flushed by MVA & ASID
system.cpu.itb.hits                                 0                       # DTB hits
system.cpu.itb.inst_accesses                        0                       # ITB inst accesses
system.cpu.itb.inst_hits                            0                       # ITB inst hits
system.cpu.itb.inst_misses                          0                       # ITB inst misses
system.cpu.itb.misses                               0                       # DTB misses
system.cpu.itb.perms_faults                         0                       # Number of TLB faults due to permissions restrictions
system.cpu.itb.prefetch_faults                      0                       # Number of TLB faults due to prefetch
system.cpu.itb.read_accesses                        0                       # DTB read accesses
system.cpu.itb.read_hits                            0                       # DTB read hits
system.cpu.itb.read_misses                          0                       # DTB read misses
system.cpu.itb.stage2_mmu.stage2_tlb.accesses            0                       # DTB accesses
system.cpu.itb.stage2_mmu.stage2_tlb.align_faults            0                       # Number of TLB faults due to alignment restrictions
system.cpu.itb.stage2_mmu.stage2_tlb.domain_faults            0                       # Number of TLB faults due to domain restrictions
system.cpu.itb.stage2_mmu.stage2_tlb.flush_entries            0                       # Number of entries that have been flushed from TLB
system.cpu.itb.stage2_mmu.stage2_tlb.flush_tlb            0                       # Number of times complete TLB was flushed
system.cpu.itb.stage2_mmu.stage2_tlb.flush_tlb_asid            0                       # Number of times TLB was flushed by ASID
system.cpu.itb.stage2_mmu.stage2_tlb.flush_tlb_mva            0                       # Number of times TLB was flushed by MVA
system.cpu.itb.stage2_mmu.stage2_tlb.flush_tlb_mva_asid            0                       # Number of times TLB was flushed by MVA & ASID
system.cpu.itb.stage2_mmu.stage2_tlb.hits            0                       # DTB hits
system.cpu.itb.stage2_mmu.stage2_tlb.inst_accesses            0                       # ITB inst accesses
system.cpu.itb.stage2_mmu.stage2_tlb.inst_hits            0                       # ITB inst hits
system.cpu.itb.stage2_mmu.stage2_tlb.inst_misses            0                       # ITB inst misses
system.cpu.itb.stage2_mmu.stage2_tlb.misses            0                       # DTB misses
system.cpu.itb.stage2_mmu.stage2_tlb.perms_faults            0                       # Number of TLB faults due to permissions restrictions
system.cpu.itb.stage2_mmu.stage2_tlb.prefetch_faults            0                       # Number of TLB faults due to prefetch
system.cpu.itb.stage2_mmu.stage2_tlb.read_accesses            0                       # DTB read accesses
system.cpu.itb.stage2_mmu.stage2_tlb.read_hits            0                       # DTB read hits
system.cpu.itb.stage2_mmu.stage2_tlb.read_misses            0                       # DTB read misses
system.cpu.itb.stage2_mmu.stage2_tlb.walker.walkRequestOrigin_Requested::Data            0                       # Table walker requests started/completed, data/inst
system.cpu.itb.stage2_mmu.stage2_tlb.walker.walkRequestOrigin_Requested::Inst            0                       # Table walker requests started/completed, data/inst
system.cpu.itb.stage2_mmu.stage2_tlb.walker.walkRequestOrigin_Requested::total            0                       # Table walker requests started/completed, data/inst
system.cpu.itb.stage2_mmu.stage2_tlb.walker.walkRequestOrigin_Completed::Data            0                       # Table walker requests started/completed, data/inst
system.cpu.itb.stage2_mmu.stage2_tlb.walker.walkRequestOrigin_Completed::Inst            0                       # Table walker requests started/completed, data/inst
system.cpu.itb.stage2_mmu.stage2_tlb.walker.walkRequestOrigin_Completed::total            0                       # Table walker requests started/completed, data/inst
system.cpu.itb.stage2_mmu.stage2_tlb.walker.walkRequestOrigin::total            0                       # Table walker requests started/completed, data/inst
system.cpu.itb.stage2_mmu.stage2_tlb.walker.walks            0                       # Table walker walks requested
system.cpu.itb.stage2_mmu.stage2_tlb.write_accesses            0                       # DTB write accesses
system.cpu.itb.stage2_mmu.stage2_tlb.write_hits            0                       # DTB write hits
system.cpu.itb.stage2_mmu.stage2_tlb.write_misses            0                       # DTB write misses
system.cpu.itb.walker.walkRequestOrigin_Requested::Data            0                       # Table walker requests started/completed, data/inst
system.cpu.itb.walker.walkRequestOrigin_Requested::Inst            0                       # Table walker requests started/completed, data/inst
system.cpu.itb.walker.walkRequestOrigin_Requested::total            0                       # Table walker requests started/completed, data/inst
system.cpu.itb.walker.walkRequestOrigin_Completed::Data            0                       # Table walker requests started/completed, data/inst
system.cpu.itb.walker.walkRequestOrigin_Completed::Inst            0                       # Table walker requests started/completed, data/inst
system.cpu.itb.walker.walkRequestOrigin_Completed::total            0                       # Table walker requests started/completed, data/inst
system.cpu.itb.walker.walkRequestOrigin::total            0                       # Table walker requests started/completed, data/inst
system.cpu.itb.walker.walks                         0                       # Table walker walks requested
system.cpu.itb.write_accesses                       0                       # DTB write accesses
system.cpu.itb.write_hits                           0                       # DTB write hits
system.cpu.itb.write_misses                         0                       # DTB write misses
system.cpu.numCycles                           471367                       # number of cpu cycles simulated
system.cpu.numFetchSuspends                         0                       # Number of times Execute suspended instruction fetching
system.cpu.numWorkItemsCompleted                    0                       # number of work items this cpu completed
system.cpu.numWorkItemsStarted                      0                       # number of work items this cpu started
system.cpu.op_class_0::No_OpClass                   0      0.00%      0.00% # Class of committed instruction
system.cpu.op_class_0::IntAlu                  234521     67.43%     67.43% # Class of committed instruction
system.cpu.op_class_0::IntMult                   1820      0.52%     67.96% # Class of committed instruction
system.cpu.op_class_0::IntDiv                       0      0.00%     67.96% # Class of committed instruction
system.cpu.op_class_0::FloatAdd                     0      0.00%     67.96% # Class of committed instruction
system.cpu.op_class_0::FloatCmp                     0      0.00%     67.96% # Class of committed instruction
system.cpu.op_class_0::FloatCvt                     0      0.00%     67.96% # Class of committed instruction
system.cpu.op_class_0::FloatMult                    0      0.00%     67.96% # Class of committed instruction
system.cpu.op_class_0::FloatMultAcc                 0      0.00%     67.96% # Class of committed instruction
system.cpu.op_class_0::FloatDiv                     0      0.00%     67.96% # Class of committed instruction
system.cpu.op_class_0::FloatMisc                    0      0.00%     67.96% # Class of committed instruction
system.cpu.op_class_0::FloatSqrt                    0      0.00%     67.96% # Class of committed instruction
system.cpu.op_class_0::SimdAdd                      0      0.00%     67.96% # Class of committed instruction
system.cpu.op_class_0::SimdAddAcc                   0      0.00%     67.96% # Class of committed instruction
system.cpu.op_class_0::SimdAlu                      0      0.00%     67.96% # Class of committed instruction
system.cpu.op_class_0::SimdCmp                      0      0.00%     67.96% # Class of committed instruction
system.cpu.op_class_0::SimdCvt                      0      0.00%     67.96% # Class of committed instruction
system.cpu.op_class_0::SimdMisc                     0      0.00%     67.96% # Class of committed instruction
system.cpu.op_class_0::SimdMult                     0      0.00%     67.96% # Class of committed instruction
system.cpu.op_class_0::SimdMultAcc                  0      0.00%     67.96% # Class of committed instruction
system.cpu.op_class_0::SimdShift                    0      0.00%     67.96% # Class of committed instruction
system.cpu.op_class_0::SimdShiftAcc                 0      0.00%     67.96% # Class of committed instruction
system.cpu.op_class_0::SimdDiv                      0      0.00%     67.96% # Class of committed instruction
system.cpu.op_class_0::SimdSqrt                     0      0.00%     67.96% # Class of committed instruction
system.cpu.op_class_0::SimdFloatAdd                 0      0.00%     67.96% # Class of committed instruction
system.cpu.op_class_0::SimdFloatAlu                 0      0.00%     67.96% # Class of committed instruction
system.cpu.op_class_0::SimdFloatCmp                 0      0.00%     67.96% # Class of committed instruction
system.cpu.op_class_0::SimdFloatCvt                 0      0.00%     67.96% # Class of committed instruction
system.cpu.op_class_0::SimdFloatDiv                 0      0.00%     67.96% # Class of committed instruction
system.cpu.op_class_0::SimdFloatMisc               21      0.01%     67.96% # Class of committed instruction
system.cpu.op_class_0::SimdFloatMult                0      0.00%     67.96% # Class of committed instruction
system.cpu.op_class_0::SimdFloatMultAcc             0      0.00%     67.96% # Class of committed instruction
system.cpu.op_class_0::SimdFloatSqrt                0      0.00%     67.96% # Class of committed instruction
system.cpu.op_class_0::SimdReduceAdd                0      0.00%     67.96% # Class of committed instruction
system.cpu.op_class_0::SimdReduceAlu                0      0.00%     67.96% # Class of committed instruction
system.cpu.op_class_0::SimdReduceCmp                0      0.00%     67.96% # Class of committed instruction
system.cpu.op_class_0::SimdFloatReduceAdd            0      0.00%     67.96% # Class of committed instruction
system.cpu.op_class_0::SimdFloatReduceCmp            0      0.00%     67.96% # Class of committed instruction
system.cpu.op_class_0::SimdAes                      0      0.00%     67.96% # Class of committed instruction
system.cpu.op_class_0::SimdAesMix                   0      0.00%     67.96% # Class of committed instruction
system.cpu.op_class_0::SimdSha1Hash                 0      0.00%     67.96% # Class of committed instruction
system.cpu.op_class_0::SimdSha1Hash2                0      0.00%     67.96% # Class of committed instruction
system.cpu.op_class_0::SimdSha256Hash               0      0.00%     67.96% # Class of committed instruction
system.cpu.op_class_0::SimdSha256Hash2              0      0.00%     67.96% # Class of committed instruction
system.cpu.op_class_0::SimdShaSigma2                0      0.00%     67.96% # Class of committed instruction
system.cpu.op_class_0::SimdShaSigma3                0      0.00%     67.96% # Class of committed instruction
system.cpu.op_class_0::SimdPredAlu                  0      0.00%     67.96% # Class of committed instruction
system.cpu.op_class_0::MemRead                  61867     17.79%     85.75% # Class of committed instruction
system.cpu.op_class_0::MemWrite                 49549     14.25%    100.00% # Class of committed instruction
system.cpu.op_class_0::FloatMemRead                 0      0.00%    100.00% # Class of committed instruction
system.cpu.op_class_0::FloatMemWrite                0      0.00%    100.00% # Class of committed instruction
system.cpu.op_class_0::IprAccess                    0      0.00%    100.00% # Class of committed instruction
system.cpu.op_class_0::InstPrefetch                 0      0.00%    100.00% # Class of committed instruction
system.cpu.op_class_0::total                   347778                       # Class of committed instruction
system.cpu.tickCycles                          383827                       # Number of cycles that the object actually ticked
system.cpu.workload.numSyscalls                    47                       # Number of system calls
system.membus.snoop_filter.hit_multi_requests          557                       # Number of requests hitting in the snoop filter with multiple (>1) holders of the requested data.
system.membus.snoop_filter.hit_multi_snoops            0                       # Number of snoops hitting in the snoop filter with multiple (>1) holders of the requested data.
system.membus.snoop_filter.hit_single_requests         2735                       # Number of requests hitting in the snoop filter with a single holder of the requested data.
system.membus.snoop_filter.hit_single_snoops            0                       # Number of snoops hitting in the snoop filter with a single holder of the requested data.
system.membus.snoop_filter.tot_requests          5972                       # Total number of requests made to the snoop filter.
system.membus.snoop_filter.tot_snoops               0                       # Total number of snoops made to the snoop filter.
system.membus.pwrStateResidencyTicks::UNDEFINED    471367000                       # Cumulative time (in ticks) in various power states
system.membus.trans_dist::ReadResp               3160                       # Transaction distribution
system.membus.trans_dist::WritebackClean         2713                       # Transaction distribution
system.membus.trans_dist::CleanEvict                2                       # Transaction distribution
system.membus.trans_dist::ReadExReq                97                       # Transaction distribution
system.membus.trans_dist::ReadExResp               97                       # Transaction distribution
system.membus.trans_dist::ReadCleanReq           3048                       # Transaction distribution
system.membus.trans_dist::ReadSharedReq           112                       # Transaction distribution
system.membus.pkt_count_system.cpu.icache.mem_side::system.mem_ctrls.port         8809                       # Packet count per connected master and slave (bytes)
system.membus.pkt_count_system.cpu.dcache.mem_side::system.mem_ctrls.port          420                       # Packet count per connected master and slave (bytes)
system.membus.pkt_count::total                   9229                       # Packet count per connected master and slave (bytes)
system.membus.pkt_size_system.cpu.icache.mem_side::system.mem_ctrls.port       368704                       # Cumulative packet size per connected master and slave (bytes)
system.membus.pkt_size_system.cpu.dcache.mem_side::system.mem_ctrls.port        13376                       # Cumulative packet size per connected master and slave (bytes)
system.membus.pkt_size::total                  382080                       # Cumulative packet size per connected master and slave (bytes)
system.membus.snoops                                0                       # Total snoops (count)
system.membus.snoopTraffic                          0                       # Total snoop traffic (bytes)
system.membus.snoop_fanout::samples              3257                       # Request fanout histogram
system.membus.snoop_fanout::mean             0.177157                       # Request fanout histogram
system.membus.snoop_fanout::stdev            0.381860                       # Request fanout histogram
system.membus.snoop_fanout::underflows              0      0.00%      0.00% # Request fanout histogram
system.membus.snoop_fanout::0                    2680     82.28%     82.28% # Request fanout histogram
system.membus.snoop_fanout::1                     577     17.72%    100.00% # Request fanout histogram
system.membus.snoop_fanout::2                       0      0.00%    100.00% # Request fanout histogram
system.membus.snoop_fanout::overflows               0      0.00%    100.00% # Request fanout histogram
system.membus.snoop_fanout::min_value               0                       # Request fanout histogram
system.membus.snoop_fanout::max_value               1                       # Request fanout histogram
system.membus.snoop_fanout::total                3257                       # Request fanout histogram
system.membus.reqLayer0.occupancy            16824000                       # Layer occupancy (ticks)
system.membus.reqLayer0.utilization               3.6                       # Layer utilization (%)
system.membus.respLayer1.occupancy           15547250                       # Layer occupancy (ticks)
system.membus.respLayer1.utilization              3.3                       # Layer utilization (%)
system.membus.respLayer2.occupancy            1115750                       # Layer occupancy (ticks)
system.membus.respLayer2.utilization              0.2                       # Layer utilization (%)
system.voltage_domain.voltage                       1                       # Voltage in Volts
system.clk_domain.clock                          1000                       # Clock period in ticks
system.cpu_voltage_domain.voltage                   1                       # Voltage in Volts
system.mem_ctrls.pwrStateResidencyTicks::UNDEFINED    471367000                       # Cumulative time (in ticks) in various power states
system.mem_ctrls.bytes_read::.cpu.inst         195072                       # Number of bytes read from this memory
system.mem_ctrls.bytes_read::.cpu.data          13376                       # Number of bytes read from this memory
system.mem_ctrls.bytes_read::total             208448                       # Number of bytes read from this memory
system.mem_ctrls.bytes_inst_read::.cpu.inst       195072                       # Number of instructions bytes read from this memory
system.mem_ctrls.bytes_inst_read::total        195072                       # Number of instructions bytes read from this memory
system.mem_ctrls.num_reads::.cpu.inst            3048                       # Number of read requests responded to by this memory
system.mem_ctrls.num_reads::.cpu.data             209                       # Number of read requests responded to by this memory
system.mem_ctrls.num_reads::total                3257                       # Number of read requests responded to by this memory
system.mem_ctrls.bw_read::.cpu.inst         413843141                       # Total read bandwidth from this memory (bytes/s)
system.mem_ctrls.bw_read::.cpu.data          28377040                       # Total read bandwidth from this memory (bytes/s)
system.mem_ctrls.bw_read::total             442220181                       # Total read bandwidth from this memory (bytes/s)
system.mem_ctrls.bw_inst_read::.cpu.inst    413843141                       # Instruction read bandwidth from this memory (bytes/s)
system.mem_ctrls.bw_inst_read::total        413843141                       # Instruction read bandwidth from this memory (bytes/s)
system.mem_ctrls.bw_total::.cpu.inst        413843141                       # Total bandwidth to/from this memory (bytes/s)
system.mem_ctrls.bw_total::.cpu.data         28377040                       # Total bandwidth to/from this memory (bytes/s)
system.mem_ctrls.bw_total::total            442220181                       # Total bandwidth to/from this memory (bytes/s)
system.mem_ctrls.avgPriority_.writebacks::samples       162.00                       # Average QoS priority value for accepted requests
system.mem_ctrls.avgPriority_.cpu.inst::samples      1026.00                       # Average QoS priority value for accepted requests
system.mem_ctrls.avgPriority_.cpu.data::samples       209.00                       # Average QoS priority value for accepted requests
system.mem_ctrls.priorityMinLatency      0.000000018750                       # per QoS priority minimum request to response latency (s)
system.mem_ctrls.priorityMaxLatency      0.000774625750                       # per QoS priority maximum request to response latency (s)
system.mem_ctrls.numReadWriteTurnArounds            8                       # Number of turnarounds from READ to WRITE
system.mem_ctrls.numWriteReadTurnArounds            8                       # Number of turnarounds from WRITE to READ
system.mem_ctrls.numStayReadState                4736                       # Number of times bus staying in READ state
system.mem_ctrls.numStayWriteState                122                       # Number of times bus staying in WRITE state
system.mem_ctrls.readReqs                        3257                       # Number of read requests accepted
system.mem_ctrls.writeReqs                       2157                       # Number of write requests accepted
system.mem_ctrls.readBursts                      3257                       # Number of DRAM read bursts, including those serviced by the write queue
system.mem_ctrls.writeBursts                     2157                       # Number of DRAM write bursts, including those merged in the write queue
system.mem_ctrls.servicedByWrQ                   2022                       # Number of DRAM read bursts serviced by the write queue
system.mem_ctrls.mergedWrBursts                  1995                       # Number of DRAM write bursts merged with an existing one
system.mem_ctrls.neitherReadNorWriteReqs            0                       # Number of requests that are neither read nor write
system.mem_ctrls.perBankRdBursts::0               325                       # Per bank write bursts
system.mem_ctrls.perBankRdBursts::1                 7                       # Per bank write bursts
system.mem_ctrls.perBankRdBursts::2                44                       # Per bank write bursts
system.mem_ctrls.perBankRdBursts::3                50                       # Per bank write bursts
system.mem_ctrls.perBankRdBursts::4               329                       # Per bank write bursts
system.mem_ctrls.perBankRdBursts::5                25                       # Per bank write bursts
system.mem_ctrls.perBankRdBursts::6                64                       # Per bank write bursts
system.mem_ctrls.perBankRdBursts::7                15                       # Per bank write bursts
system.mem_ctrls.perBankRdBursts::8               105                       # Per bank write bursts
system.mem_ctrls.perBankRdBursts::9                81                       # Per bank write bursts
system.mem_ctrls.perBankRdBursts::10               41                       # Per bank write bursts
system.mem_ctrls.perBankRdBursts::11               56                       # Per bank write bursts
system.mem_ctrls.perBankRdBursts::12               64                       # Per bank write bursts
system.mem_ctrls.perBankRdBursts::13               18                       # Per bank write bursts
system.mem_ctrls.perBankRdBursts::14               10                       # Per bank write bursts
system.mem_ctrls.perBankRdBursts::15                1                       # Per bank write bursts
system.mem_ctrls.perBankWrBursts::0                36                       # Per bank write bursts
system.mem_ctrls.perBankWrBursts::1                 0                       # Per bank write bursts
system.mem_ctrls.perBankWrBursts::2                15                       # Per bank write bursts
system.mem_ctrls.perBankWrBursts::3                 0                       # Per bank write bursts
system.mem_ctrls.perBankWrBursts::4                 7                       # Per bank write bursts
system.mem_ctrls.perBankWrBursts::5                 3                       # Per bank write bursts
system.mem_ctrls.perBankWrBursts::6                 1                       # Per bank write bursts
system.mem_ctrls.perBankWrBursts::7                 1                       # Per bank write bursts
system.mem_ctrls.perBankWrBursts::8                33                       # Per bank write bursts
system.mem_ctrls.perBankWrBursts::9                 3                       # Per bank write bursts
system.mem_ctrls.perBankWrBursts::10                3                       # Per bank write bursts
system.mem_ctrls.perBankWrBursts::11                3                       # Per bank write bursts
system.mem_ctrls.perBankWrBursts::12               25                       # Per bank write bursts
system.mem_ctrls.perBankWrBursts::13                0                       # Per bank write bursts
system.mem_ctrls.perBankWrBursts::14                0                       # Per bank write bursts
system.mem_ctrls.perBankWrBursts::15                0                       # Per bank write bursts
system.mem_ctrls.avgRdQLen                       1.01                       # Average read queue length when enqueuing
system.mem_ctrls.avgWrQLen                      25.57                       # Average write queue length when enqueuing
system.mem_ctrls.totQLat                      8038500                       # Total ticks spent queuing
system.mem_ctrls.totBusLat                    6175000                       # Total ticks spent in databus transfers
system.mem_ctrls.totMemAccLat                31194750                       # Total ticks spent from burst creation until serviced by the DRAM
system.mem_ctrls.avgQLat                      6508.91                       # Average queueing delay per DRAM burst
system.mem_ctrls.avgBusLat                    5000.00                       # Average bus latency per DRAM burst
system.mem_ctrls.avgMemAccLat                25258.91                       # Average memory access latency per DRAM burst
system.mem_ctrls.numRdRetry                         0                       # Number of times read queue was full causing retry
system.mem_ctrls.numWrRetry                         0                       # Number of times write queue was full causing retry
system.mem_ctrls.readRowHits                      999                       # Number of row buffer hits during reads
system.mem_ctrls.writeRowHits                     107                       # Number of row buffer hits during writes
system.mem_ctrls.readRowHitRate                 80.89                       # Row buffer hit rate for reads
system.mem_ctrls.writeRowHitRate                66.05                       # Row buffer hit rate for writes
system.mem_ctrls.readPktSize::0                     0                       # Read request sizes (log2)
system.mem_ctrls.readPktSize::1                     0                       # Read request sizes (log2)
system.mem_ctrls.readPktSize::2                     0                       # Read request sizes (log2)
system.mem_ctrls.readPktSize::3                     0                       # Read request sizes (log2)
system.mem_ctrls.readPktSize::4                     0                       # Read request sizes (log2)
system.mem_ctrls.readPktSize::5                     0                       # Read request sizes (log2)
system.mem_ctrls.readPktSize::6                  3257                       # Read request sizes (log2)
system.mem_ctrls.writePktSize::0                    0                       # Write request sizes (log2)
system.mem_ctrls.writePktSize::1                    0                       # Write request sizes (log2)
system.mem_ctrls.writePktSize::2                    0                       # Write request sizes (log2)
system.mem_ctrls.writePktSize::3                    0                       # Write request sizes (log2)
system.mem_ctrls.writePktSize::4                    0                       # Write request sizes (log2)
system.mem_ctrls.writePktSize::5                    0                       # Write request sizes (log2)
system.mem_ctrls.writePktSize::6                 2157                       # Write request sizes (log2)
system.mem_ctrls.rdQLenPdf::0                    1146                       # What read queue length does an incoming req see
system.mem_ctrls.rdQLenPdf::1                      85                       # What read queue length does an incoming req see
system.mem_ctrls.rdQLenPdf::2                       4                       # What read queue length does an incoming req see
system.mem_ctrls.rdQLenPdf::3                       0                       # What read queue length does an incoming req see
system.mem_ctrls.rdQLenPdf::4                       0                       # What read queue length does an incoming req see
system.mem_ctrls.rdQLenPdf::5                       0                       # What read queue length does an incoming req see
system.mem_ctrls.rdQLenPdf::6                       0                       # What read queue length does an incoming req see
system.mem_ctrls.rdQLenPdf::7                       0                       # What read queue length does an incoming req see
system.mem_ctrls.rdQLenPdf::8                       0                       # What read queue length does an incoming req see
system.mem_ctrls.rdQLenPdf::9                       0                       # What read queue length does an incoming req see
system.mem_ctrls.rdQLenPdf::10                      0                       # What read queue length does an incoming req see
system.mem_ctrls.rdQLenPdf::11                      0                       # What read queue length does an incoming req see
system.mem_ctrls.rdQLenPdf::12                      0                       # What read queue length does an incoming req see
system.mem_ctrls.rdQLenPdf::13                      0                       # What read queue length does an incoming req see
system.mem_ctrls.rdQLenPdf::14                      0                       # What read queue length does an incoming req see
system.mem_ctrls.rdQLenPdf::15                      0                       # What read queue length does an incoming req see
system.mem_ctrls.rdQLenPdf::16                      0                       # What read queue length does an incoming req see
system.mem_ctrls.rdQLenPdf::17                      0                       # What read queue length does an incoming req see
system.mem_ctrls.rdQLenPdf::18                      0                       # What read queue length does an incoming req see
system.mem_ctrls.rdQLenPdf::19                      0                       # What read queue length does an incoming req see
system.mem_ctrls.rdQLenPdf::20                      0                       # What read queue length does an incoming req see
system.mem_ctrls.rdQLenPdf::21                      0                       # What read queue length does an incoming req see
system.mem_ctrls.rdQLenPdf::22                      0                       # What read queue length does an incoming req see
system.mem_ctrls.rdQLenPdf::23                      0                       # What read queue length does an incoming req see
system.mem_ctrls.rdQLenPdf::24                      0                       # What read queue length does an incoming req see
system.mem_ctrls.rdQLenPdf::25                      0                       # What read queue length does an incoming req see
system.mem_ctrls.rdQLenPdf::26                      0                       # What read queue length does an incoming req see
system.mem_ctrls.rdQLenPdf::27                      0                       # What read queue length does an incoming req see
system.mem_ctrls.rdQLenPdf::28                      0                       # What read queue length does an incoming req see
system.mem_ctrls.rdQLenPdf::29                      0                       # What read queue length does an incoming req see
system.mem_ctrls.rdQLenPdf::30                      0                       # What read queue length does an incoming req see
system.mem_ctrls.rdQLenPdf::31                      0                       # What read queue length does an incoming req see
system.mem_ctrls.wrQLenPdf::0                       1                       # What write queue length does an incoming req see
system.mem_ctrls.wrQLenPdf::1                       1                       # What write queue length does an incoming req see
system.mem_ctrls.wrQLenPdf::2                       1                       # What write queue length does an incoming req see
system.mem_ctrls.wrQLenPdf::3                       1                       # What write queue length does an incoming req see
system.mem_ctrls.wrQLenPdf::4                       1                       # What write queue length does an incoming req see
system.mem_ctrls.wrQLenPdf::5                       1                       # What write queue length does an incoming req see
system.mem_ctrls.wrQLenPdf::6                       1                       # What write queue length does an incoming req see
system.mem_ctrls.wrQLenPdf::7                       1                       # What write queue length does an incoming req see
system.mem_ctrls.wrQLenPdf::8                       1                       # What write queue length does an incoming req see
system.mem_ctrls.wrQLenPdf::9                       1                       # What write queue length does an incoming req see
system.mem_ctrls.wrQLenPdf::10                      1                       # What write queue length does an incoming req see
system.mem_ctrls.wrQLenPdf::11                      1                       # What write queue length does an incoming req see
system.mem_ctrls.wrQLenPdf::12                      1                       # What write queue length does an incoming req see
system.mem_ctrls.wrQLenPdf::13                      1                       # What write queue length does an incoming req see
system.mem_ctrls.wrQLenPdf::14                      1                       # What write queue length does an incoming req see
system.mem_ctrls.wrQLenPdf::15                      2                       # What write queue length does an incoming req see
system.mem_ctrls.wrQLenPdf::16                      2                       # What write queue length does an incoming req see
system.mem_ctrls.wrQLenPdf::17                      9                       # What write queue length does an incoming req see
system.mem_ctrls.wrQLenPdf::18                      9                       # What write queue length does an incoming req see
system.mem_ctrls.wrQLenPdf::19                      9                       # What write queue length does an incoming req see
system.mem_ctrls.wrQLenPdf::20                      9                       # What write queue length does an incoming req see
system.mem_ctrls.wrQLenPdf::21                      9                       # What write queue length does an incoming req see
system.mem_ctrls.wrQLenPdf::22                      9                       # What write queue length does an incoming req see
system.mem_ctrls.wrQLenPdf::23                      9                       # What write queue length does an incoming req see
system.mem_ctrls.wrQLenPdf::24                      9                       # What write queue length does an incoming req see
system.mem_ctrls.wrQLenPdf::25                      9                       # What write queue length does an incoming req see
system.mem_ctrls.wrQLenPdf::26                      9                       # What write queue length does an incoming req see
system.mem_ctrls.wrQLenPdf::27                      9                       # What write queue length does an incoming req see
system.mem_ctrls.wrQLenPdf::28                      9                       # What write queue length does an incoming req see
system.mem_ctrls.wrQLenPdf::29                      9                       # What write queue length does an incoming req see
system.mem_ctrls.wrQLenPdf::30                      9                       # What write queue length does an incoming req see
system.mem_ctrls.wrQLenPdf::31                      9                       # What write queue length does an incoming req see
system.mem_ctrls.wrQLenPdf::32                      8                       # What write queue length does an incoming req see
system.mem_ctrls.wrQLenPdf::33                      0                       # What write queue length does an incoming req see
system.mem_ctrls.wrQLenPdf::34                      0                       # What write queue length does an incoming req see
system.mem_ctrls.wrQLenPdf::35                      0                       # What write queue length does an incoming req see
system.mem_ctrls.wrQLenPdf::36                      0                       # What write queue length does an incoming req see
system.mem_ctrls.wrQLenPdf::37                      0                       # What write queue length does an incoming req see
system.mem_ctrls.wrQLenPdf::38                      0                       # What write queue length does an incoming req see
system.mem_ctrls.wrQLenPdf::39                      0                       # What write queue length does an incoming req see
system.mem_ctrls.wrQLenPdf::40                      0                       # What write queue length does an incoming req see
system.mem_ctrls.wrQLenPdf::41                      0                       # What write queue length does an incoming req see
system.mem_ctrls.wrQLenPdf::42                      0                       # What write queue length does an incoming req see
system.mem_ctrls.wrQLenPdf::43                      0                       # What write queue length does an incoming req see
system.mem_ctrls.wrQLenPdf::44                      0                       # What write queue length does an incoming req see
system.mem_ctrls.wrQLenPdf::45                      0                       # What write queue length does an incoming req see
system.mem_ctrls.wrQLenPdf::46                      0                       # What write queue length does an incoming req see
system.mem_ctrls.wrQLenPdf::47                      0                       # What write queue length does an incoming req see
system.mem_ctrls.wrQLenPdf::48                      0                       # What write queue length does an incoming req see
system.mem_ctrls.wrQLenPdf::49                      0                       # What write queue length does an incoming req see
system.mem_ctrls.wrQLenPdf::50                      0                       # What write queue length does an incoming req see
system.mem_ctrls.wrQLenPdf::51                      0                       # What write queue length does an incoming req see
system.mem_ctrls.wrQLenPdf::52                      0                       # What write queue length does an incoming req see
system.mem_ctrls.wrQLenPdf::53                      0                       # What write queue length does an incoming req see
system.mem_ctrls.wrQLenPdf::54                      0                       # What write queue length does an incoming req see
system.mem_ctrls.wrQLenPdf::55                      0                       # What write queue length does an incoming req see
system.mem_ctrls.wrQLenPdf::56                      0                       # What write queue length does an incoming req see
system.mem_ctrls.wrQLenPdf::57                      0                       # What write queue length does an incoming req see
system.mem_ctrls.wrQLenPdf::58                      0                       # What write queue length does an incoming req see
system.mem_ctrls.wrQLenPdf::59                      0                       # What write queue length does an incoming req see
system.mem_ctrls.wrQLenPdf::60                      0                       # What write queue length does an incoming req see
system.mem_ctrls.wrQLenPdf::61                      0                       # What write queue length does an incoming req see
system.mem_ctrls.wrQLenPdf::62                      0                       # What write queue length does an incoming req see
system.mem_ctrls.wrQLenPdf::63                      0                       # What write queue length does an incoming req see
system.mem_ctrls.bytesPerActivate::samples          249                       # Bytes accessed per row activation
system.mem_ctrls.bytesPerActivate::mean    338.763052                       # Bytes accessed per row activation
system.mem_ctrls.bytesPerActivate::gmean   257.055461                       # Bytes accessed per row activation
system.mem_ctrls.bytesPerActivate::stdev   244.029769                       # Bytes accessed per row activation
system.mem_ctrls.bytesPerActivate::0-127           38     15.26%     15.26% # Bytes accessed per row activation
system.mem_ctrls.bytesPerActivate::128-255           55     22.09%     37.35% # Bytes accessed per row activation
system.mem_ctrls.bytesPerActivate::256-383           33     13.25%     50.60% # Bytes accessed per row activation
system.mem_ctrls.bytesPerActivate::384-511           85     34.14%     84.74% # Bytes accessed per row activation
system.mem_ctrls.bytesPerActivate::512-639           11      4.42%     89.16% # Bytes accessed per row activation
system.mem_ctrls.bytesPerActivate::640-767            5      2.01%     91.16% # Bytes accessed per row activation
system.mem_ctrls.bytesPerActivate::768-895            7      2.81%     93.98% # Bytes accessed per row activation
system.mem_ctrls.bytesPerActivate::896-1023            1      0.40%     94.38% # Bytes accessed per row activation
system.mem_ctrls.bytesPerActivate::1024-1151           14      5.62%    100.00% # Bytes accessed per row activation
system.mem_ctrls.bytesPerActivate::total          249                       # Bytes accessed per row activation
system.mem_ctrls.rdPerTurnAround::samples            8                       # Reads before turning the bus around for writes
system.mem_ctrls.rdPerTurnAround::mean     148.625000                       # Reads before turning the bus around for writes
system.mem_ctrls.rdPerTurnAround::gmean     87.084382                       # Reads before turning the bus around for writes
system.mem_ctrls.rdPerTurnAround::stdev    160.913408                       # Reads before turning the bus around for writes
system.mem_ctrls.rdPerTurnAround::16-31             1     12.50%     12.50% # Reads before turning the bus around for writes
system.mem_ctrls.rdPerTurnAround::32-47             2     25.00%     37.50% # Reads before turning the bus around for writes
system.mem_ctrls.rdPerTurnAround::48-63             1     12.50%     50.00% # Reads before turning the bus around for writes
system.mem_ctrls.rdPerTurnAround::64-79             1     12.50%     62.50% # Reads before turning the bus around for writes
system.mem_ctrls.rdPerTurnAround::160-175            1     12.50%     75.00% # Reads before turning the bus around for writes
system.mem_ctrls.rdPerTurnAround::352-367            1     12.50%     87.50% # Reads before turning the bus around for writes
system.mem_ctrls.rdPerTurnAround::416-431            1     12.50%    100.00% # Reads before turning the bus around for writes
system.mem_ctrls.rdPerTurnAround::total             8                       # Reads before turning the bus around for writes
system.mem_ctrls.wrPerTurnAround::samples            8                       # Writes before turning the bus around for reads
system.mem_ctrls.wrPerTurnAround::mean      16.250000                       # Writes before turning the bus around for reads
system.mem_ctrls.wrPerTurnAround::gmean     16.237309                       # Writes before turning the bus around for reads
system.mem_ctrls.wrPerTurnAround::stdev      0.707107                       # Writes before turning the bus around for reads
system.mem_ctrls.wrPerTurnAround::16                7     87.50%     87.50% # Writes before turning the bus around for reads
system.mem_ctrls.wrPerTurnAround::18                1     12.50%    100.00% # Writes before turning the bus around for reads
system.mem_ctrls.wrPerTurnAround::total             8                       # Writes before turning the bus around for reads
system.mem_ctrls.bytesReadDRAM                  79040                       # Total number of bytes read from DRAM
system.mem_ctrls.bytesReadWrQ                  129408                       # Total number of bytes read from write queue
system.mem_ctrls.bytesWritten                    8320                       # Total number of bytes written to DRAM
system.mem_ctrls.bytesReadSys                  208448                       # Total read bytes from the system interface side
system.mem_ctrls.bytesWrittenSys               138048                       # Total written bytes from the system interface side
system.mem_ctrls.avgRdBW                       167.68                       # Average DRAM read bandwidth in MiByte/s
system.mem_ctrls.avgWrBW                        17.65                       # Average achieved write bandwidth in MiByte/s
system.mem_ctrls.avgRdBWSys                    442.22                       # Average system read bandwidth in MiByte/s
system.mem_ctrls.avgWrBWSys                    292.87                       # Average system write bandwidth in MiByte/s
system.mem_ctrls.peakBW                      12800.00                       # Theoretical peak bandwidth in MiByte/s
system.mem_ctrls.busUtil                         1.45                       # Data bus utilization in percentage
system.mem_ctrls.busUtilRead                     1.31                       # Data bus utilization in percentage for reads
system.mem_ctrls.busUtilWrite                    0.14                       # Data bus utilization in percentage for writes
system.mem_ctrls.totGap                     471350000                       # Total gap between requests
system.mem_ctrls.avgGap                      87061.32                       # Average gap between requests
system.mem_ctrls.masterReadBytes::.cpu.inst        65664                       # Per-master bytes read from memory
system.mem_ctrls.masterReadBytes::.cpu.data        13376                       # Per-master bytes read from memory
system.mem_ctrls.masterWriteBytes::.writebacks         8320                       # Per-master bytes write to memory
system.mem_ctrls.masterReadRate::.cpu.inst 139305466.865520924330                       # Per-master bytes read from memory rate (Bytes/sec)
system.mem_ctrls.masterReadRate::.cpu.data 28377039.546680189669                       # Per-master bytes read from memory rate (Bytes/sec)
system.mem_ctrls.masterWriteRate::.writebacks 17650790.148652747273                       # Per-master bytes write to memory rate (Bytes/sec)
system.mem_ctrls.masterReadAccesses::.cpu.inst         3048                       # Per-master read serviced memory accesses
system.mem_ctrls.masterReadAccesses::.cpu.data          209                       # Per-master read serviced memory accesses
system.mem_ctrls.masterWriteAccesses::.writebacks         2157                       # Per-master write serviced memory accesses
system.mem_ctrls.masterReadTotalLat::.cpu.inst     25870750                       # Per-master read total memory access latency
system.mem_ctrls.masterReadTotalLat::.cpu.data      5324000                       # Per-master read total memory access latency
system.mem_ctrls.masterWriteTotalLat::.writebacks   7364681000                       # Per-master write total memory access latency
system.mem_ctrls.masterReadAvgLat::.cpu.inst      8487.78                       # Per-master read average memory access latency
system.mem_ctrls.masterReadAvgLat::.cpu.data     25473.68                       # Per-master read average memory access latency
system.mem_ctrls.masterWriteAvgLat::.writebacks   3414316.64                       # Per-master write average memory access latency
system.mem_ctrls.pageHitRate                    79.17                       # Row buffer hit rate, read and write combined
system.mem_ctrls.rank1.actEnergy               692580                       # Energy for activate commands per rank (pJ)
system.mem_ctrls.rank1.preEnergy               349140                       # Energy for precharge commands per rank (pJ)
system.mem_ctrls.rank1.readEnergy             2684640                       # Energy for read commands per rank (pJ)
system.mem_ctrls.rank1.writeEnergy             349740                       # Energy for write commands per rank (pJ)
system.mem_ctrls.rank1.refreshEnergy     36878400.000000                       # Energy for refresh commands per rank (pJ)
system.mem_ctrls.rank1.actBackEnergy         41625960                       # Energy for active background per rank (pJ)
system.mem_ctrls.rank1.preBackEnergy        145951680                       # Energy for precharge background per rank (pJ)
system.mem_ctrls.rank1.actPowerDownEnergy            0                       # Energy for active power-down per rank (pJ)
system.mem_ctrls.rank1.prePowerDownEnergy            0                       # Energy for precharge power-down per rank (pJ)
system.mem_ctrls.rank1.selfRefreshEnergy            0                       # Energy for self refresh per rank (pJ)
system.mem_ctrls.rank1.totalEnergy          228532140                       # Total energy per rank (pJ)
system.mem_ctrls.rank1.averagePower        484.828467                       # Core power per rank (mW)
system.mem_ctrls.rank1.totalIdleTime                0                       # Total Idle time Per DRAM Rank
system.mem_ctrls.rank1.memoryStateTime::IDLE    379062500                       # Time in different power states
system.mem_ctrls.rank1.memoryStateTime::REF     15600000                       # Time in different power states
system.mem_ctrls.rank1.memoryStateTime::SREF            0                       # Time in different power states
system.mem_ctrls.rank1.memoryStateTime::PRE_PDN            0                       # Time in different power states
system.mem_ctrls.rank1.memoryStateTime::ACT     76704500                       # Time in different power states
system.mem_ctrls.rank1.memoryStateTime::ACT_PDN            0                       # Time in different power states
system.mem_ctrls.rank0.actEnergy              1156680                       # Energy for activate commands per rank (pJ)
system.mem_ctrls.rank0.preEnergy               595815                       # Energy for precharge commands per rank (pJ)
system.mem_ctrls.rank0.readEnergy             6133260                       # Energy for read commands per rank (pJ)
system.mem_ctrls.rank0.writeEnergy             328860                       # Energy for write commands per rank (pJ)
system.mem_ctrls.rank0.refreshEnergy     36878400.000000                       # Energy for refresh commands per rank (pJ)
system.mem_ctrls.rank0.actBackEnergy        197653770                       # Energy for active background per rank (pJ)
system.mem_ctrls.rank0.preBackEnergy         14559840                       # Energy for precharge background per rank (pJ)
system.mem_ctrls.rank0.actPowerDownEnergy            0                       # Energy for active power-down per rank (pJ)
system.mem_ctrls.rank0.prePowerDownEnergy            0                       # Energy for precharge power-down per rank (pJ)
system.mem_ctrls.rank0.selfRefreshEnergy            0                       # Energy for self refresh per rank (pJ)
system.mem_ctrls.rank0.totalEnergy          257306625                       # Total energy per rank (pJ)
system.mem_ctrls.rank0.averagePower        545.873226                       # Core power per rank (mW)
system.mem_ctrls.rank0.totalIdleTime                0                       # Total Idle time Per DRAM Rank
system.mem_ctrls.rank0.memoryStateTime::IDLE     36291000                       # Time in different power states
system.mem_ctrls.rank0.memoryStateTime::REF     15600000                       # Time in different power states
system.mem_ctrls.rank0.memoryStateTime::SREF            0                       # Time in different power states
system.mem_ctrls.rank0.memoryStateTime::PRE_PDN            0                       # Time in different power states
system.mem_ctrls.rank0.memoryStateTime::ACT    419476000                       # Time in different power states
system.mem_ctrls.rank0.memoryStateTime::ACT_PDN            0                       # Time in different power states
system.cpu_clk_domain.clock                      1000                       # Clock period in ticks
system.cpu.pwrStateResidencyTicks::ON       471367000                       # Cumulative time (in ticks) in various power states
system.cpu.icache.pwrStateResidencyTicks::UNDEFINED    471367000                       # Cumulative time (in ticks) in various power states
system.cpu.icache.demand_hits::.cpu.inst        92020                       # number of demand (read+write) hits
system.cpu.icache.demand_hits::total            92020                       # number of demand (read+write) hits
system.cpu.icache.overall_hits::.cpu.inst        92020                       # number of overall hits
system.cpu.icache.overall_hits::total           92020                       # number of overall hits
system.cpu.icache.demand_misses::.cpu.inst         3048                       # number of demand (read+write) misses
system.cpu.icache.demand_misses::total           3048                       # number of demand (read+write) misses
system.cpu.icache.overall_misses::.cpu.inst         3048                       # number of overall misses
system.cpu.icache.overall_misses::total          3048                       # number of overall misses
system.cpu.icache.demand_miss_latency::.cpu.inst    111395000                       # number of demand (read+write) miss cycles
system.cpu.icache.demand_miss_latency::total    111395000                       # number of demand (read+write) miss cycles
system.cpu.icache.overall_miss_latency::.cpu.inst    111395000                       # number of overall miss cycles
system.cpu.icache.overall_miss_latency::total    111395000                       # number of overall miss cycles
system.cpu.icache.demand_accesses::.cpu.inst        95068                       # number of demand (read+write) accesses
system.cpu.icache.demand_accesses::total        95068                       # number of demand (read+write) accesses
system.cpu.icache.overall_accesses::.cpu.inst        95068                       # number of overall (read+write) accesses
system.cpu.icache.overall_accesses::total        95068                       # number of overall (read+write) accesses
system.cpu.icache.demand_miss_rate::.cpu.inst     0.032061                       # miss rate for demand accesses
system.cpu.icache.demand_miss_rate::total     0.032061                       # miss rate for demand accesses
system.cpu.icache.overall_miss_rate::.cpu.inst     0.032061                       # miss rate for overall accesses
system.cpu.icache.overall_miss_rate::total     0.032061                       # miss rate for overall accesses
system.cpu.icache.demand_avg_miss_latency::.cpu.inst 36546.916010                       # average overall miss latency
system.cpu.icache.demand_avg_miss_latency::total 36546.916010                       # average overall miss latency
system.cpu.icache.overall_avg_miss_latency::.cpu.inst 36546.916010                       # average overall miss latency
system.cpu.icache.overall_avg_miss_latency::total 36546.916010                       # average overall miss latency
system.cpu.icache.blocked_cycles::no_mshrs            0                       # number of cycles access was blocked
system.cpu.icache.blocked_cycles::no_targets            0                       # number of cycles access was blocked
system.cpu.icache.blocked::no_mshrs                 0                       # number of cycles access was blocked
system.cpu.icache.blocked::no_targets               0                       # number of cycles access was blocked
system.cpu.icache.avg_blocked_cycles::no_mshrs          nan                       # average number of cycles each access was blocked
system.cpu.icache.avg_blocked_cycles::no_targets          nan                       # average number of cycles each access was blocked
system.cpu.icache.writebacks::.writebacks         2713                       # number of writebacks
system.cpu.icache.writebacks::total              2713                       # number of writebacks
system.cpu.icache.demand_mshr_misses::.cpu.inst         3048                       # number of demand (read+write) MSHR misses
system.cpu.icache.demand_mshr_misses::total         3048                       # number of demand (read+write) MSHR misses
system.cpu.icache.overall_mshr_misses::.cpu.inst         3048                       # number of overall MSHR misses
system.cpu.icache.overall_mshr_misses::total         3048                       # number of overall MSHR misses
system.cpu.icache.demand_mshr_miss_latency::.cpu.inst    105299000                       # number of demand (read+write) MSHR miss cycles
system.cpu.icache.demand_mshr_miss_latency::total    105299000                       # number of demand (read+write) MSHR miss cycles
system.cpu.icache.overall_mshr_miss_latency::.cpu.inst    105299000                       # number of overall MSHR miss cycles
system.cpu.icache.overall_mshr_miss_latency::total    105299000                       # number of overall MSHR miss cycles
system.cpu.icache.demand_mshr_miss_rate::.cpu.inst     0.032061                       # mshr miss rate for demand accesses
system.cpu.icache.demand_mshr_miss_rate::total     0.032061                       # mshr miss rate for demand accesses
system.cpu.icache.overall_mshr_miss_rate::.cpu.inst     0.032061                       # mshr miss rate for overall accesses
system.cpu.icache.overall_mshr_miss_rate::total     0.032061                       # mshr miss rate for overall accesses
system.cpu.icache.demand_avg_mshr_miss_latency::.cpu.inst 34546.916010                       # average overall mshr miss latency
system.cpu.icache.demand_avg_mshr_miss_latency::total 34546.916010                       # average overall mshr miss latency
system.cpu.icache.overall_avg_mshr_miss_latency::.cpu.inst 34546.916010                       # average overall mshr miss latency
system.cpu.icache.overall_avg_mshr_miss_latency::total 34546.916010                       # average overall mshr miss latency
system.cpu.icache.replacements                   2713                       # number of replacements
system.cpu.icache.ReadReq_hits::.cpu.inst        92020                       # number of ReadReq hits
system.cpu.icache.ReadReq_hits::total           92020                       # number of ReadReq hits
system.cpu.icache.ReadReq_misses::.cpu.inst         3048                       # number of ReadReq misses
system.cpu.icache.ReadReq_misses::total          3048                       # number of ReadReq misses
system.cpu.icache.ReadReq_miss_latency::.cpu.inst    111395000                       # number of ReadReq miss cycles
system.cpu.icache.ReadReq_miss_latency::total    111395000                       # number of ReadReq miss cycles
system.cpu.icache.ReadReq_accesses::.cpu.inst        95068                       # number of ReadReq accesses(hits+misses)
system.cpu.icache.ReadReq_accesses::total        95068                       # number of ReadReq accesses(hits+misses)
system.cpu.icache.ReadReq_miss_rate::.cpu.inst     0.032061                       # miss rate for ReadReq accesses
system.cpu.icache.ReadReq_miss_rate::total     0.032061                       # miss rate for ReadReq accesses
system.cpu.icache.ReadReq_avg_miss_latency::.cpu.inst 36546.916010                       # average ReadReq miss latency
system.cpu.icache.ReadReq_avg_miss_latency::total 36546.916010                       # average ReadReq miss latency
system.cpu.icache.ReadReq_mshr_misses::.cpu.inst         3048                       # number of ReadReq MSHR misses
system.cpu.icache.ReadReq_mshr_misses::total         3048                       # number of ReadReq MSHR misses
system.cpu.icache.ReadReq_mshr_miss_latency::.cpu.inst    105299000                       # number of ReadReq MSHR miss cycles
system.cpu.icache.ReadReq_mshr_miss_latency::total    105299000                       # number of ReadReq MSHR miss cycles
system.cpu.icache.ReadReq_mshr_miss_rate::.cpu.inst     0.032061                       # mshr miss rate for ReadReq accesses
system.cpu.icache.ReadReq_mshr_miss_rate::total     0.032061                       # mshr miss rate for ReadReq accesses
system.cpu.icache.ReadReq_avg_mshr_miss_latency::.cpu.inst 34546.916010                       # average ReadReq mshr miss latency
system.cpu.icache.ReadReq_avg_mshr_miss_latency::total 34546.916010                       # average ReadReq mshr miss latency
system.cpu.icache.tags.pwrStateResidencyTicks::UNDEFINED    471367000                       # Cumulative time (in ticks) in various power states
system.cpu.icache.tags.tagsinuse           294.445795                       # Cycle average of tags in use
system.cpu.icache.tags.total_refs               95068                       # Total number of references to valid blocks.
system.cpu.icache.tags.sampled_refs              3048                       # Sample count of references to valid blocks.
system.cpu.icache.tags.avg_refs             31.190289                       # Average number of references to valid blocks.
system.cpu.icache.tags.warmup_cycle             77000                       # Cycle when the warmup percentage was hit.
system.cpu.icache.tags.occ_blocks::.cpu.inst   294.445795                       # Average occupied blocks per requestor
system.cpu.icache.tags.occ_percent::.cpu.inst     0.575089                       # Average percentage of cache occupancy
system.cpu.icache.tags.occ_percent::total     0.575089                       # Average percentage of cache occupancy
system.cpu.icache.tags.occ_task_id_blocks::1024          335                       # Occupied blocks per task id
system.cpu.icache.tags.age_task_id_blocks_1024::0           52                       # Occupied blocks per task id
system.cpu.icache.tags.age_task_id_blocks_1024::2          283                       # Occupied blocks per task id
system.cpu.icache.tags.occ_task_id_percent::1024     0.654297                       # Percentage of cache occupancy per task id
system.cpu.icache.tags.tag_accesses            193184                       # Number of tag accesses
system.cpu.icache.tags.data_accesses           193184                       # Number of data accesses
system.cpu.dtb.walker.pwrStateResidencyTicks::UNDEFINED    471367000                       # Cumulative time (in ticks) in various power states
system.cpu.dtb.stage2_mmu.stage2_tlb.walker.pwrStateResidencyTicks::UNDEFINED    471367000                       # Cumulative time (in ticks) in various power states
system.cpu.dcache.pwrStateResidencyTicks::UNDEFINED    471367000                       # Cumulative time (in ticks) in various power states
system.cpu.dcache.demand_hits::.cpu.data       104861                       # number of demand (read+write) hits
system.cpu.dcache.demand_hits::total           104861                       # number of demand (read+write) hits
system.cpu.dcache.overall_hits::.cpu.data       104889                       # number of overall hits
system.cpu.dcache.overall_hits::total          104889                       # number of overall hits
system.cpu.dcache.demand_misses::.cpu.data          255                       # number of demand (read+write) misses
system.cpu.dcache.demand_misses::total            255                       # number of demand (read+write) misses
system.cpu.dcache.overall_misses::.cpu.data          267                       # number of overall misses
system.cpu.dcache.overall_misses::total           267                       # number of overall misses
system.cpu.dcache.demand_miss_latency::.cpu.data     15411000                       # number of demand (read+write) miss cycles
system.cpu.dcache.demand_miss_latency::total     15411000                       # number of demand (read+write) miss cycles
system.cpu.dcache.overall_miss_latency::.cpu.data     15411000                       # number of overall miss cycles
system.cpu.dcache.overall_miss_latency::total     15411000                       # number of overall miss cycles
system.cpu.dcache.demand_accesses::.cpu.data       105116                       # number of demand (read+write) accesses
system.cpu.dcache.demand_accesses::total       105116                       # number of demand (read+write) accesses
system.cpu.dcache.overall_accesses::.cpu.data       105156                       # number of overall (read+write) accesses
system.cpu.dcache.overall_accesses::total       105156                       # number of overall (read+write) accesses
system.cpu.dcache.demand_miss_rate::.cpu.data     0.002426                       # miss rate for demand accesses
system.cpu.dcache.demand_miss_rate::total     0.002426                       # miss rate for demand accesses
system.cpu.dcache.overall_miss_rate::.cpu.data     0.002539                       # miss rate for overall accesses
system.cpu.dcache.overall_miss_rate::total     0.002539                       # miss rate for overall accesses
system.cpu.dcache.demand_avg_miss_latency::.cpu.data 60435.294118                       # average overall miss latency
system.cpu.dcache.demand_avg_miss_latency::total 60435.294118                       # average overall miss latency
system.cpu.dcache.overall_avg_miss_latency::.cpu.data 57719.101124                       # average overall miss latency
system.cpu.dcache.overall_avg_miss_latency::total 57719.101124                       # average overall miss latency
system.cpu.dcache.blocked_cycles::no_mshrs            0                       # number of cycles access was blocked
system.cpu.dcache.blocked_cycles::no_targets            0                       # number of cycles access was blocked
system.cpu.dcache.blocked::no_mshrs                 0                       # number of cycles access was blocked
system.cpu.dcache.blocked::no_targets               0                       # number of cycles access was blocked
system.cpu.dcache.avg_blocked_cycles::no_mshrs          nan                       # average number of cycles each access was blocked
system.cpu.dcache.avg_blocked_cycles::no_targets          nan                       # average number of cycles each access was blocked
system.cpu.dcache.demand_mshr_hits::.cpu.data           56                       # number of demand (read+write) MSHR hits
system.cpu.dcache.demand_mshr_hits::total           56                       # number of demand (read+write) MSHR hits
system.cpu.dcache.overall_mshr_hits::.cpu.data           56                       # number of overall MSHR hits
system.cpu.dcache.overall_mshr_hits::total           56                       # number of overall MSHR hits
system.cpu.dcache.demand_mshr_misses::.cpu.data          199                       # number of demand (read+write) MSHR misses
system.cpu.dcache.demand_mshr_misses::total          199                       # number of demand (read+write) MSHR misses
system.cpu.dcache.overall_mshr_misses::.cpu.data          208                       # number of overall MSHR misses
system.cpu.dcache.overall_mshr_misses::total          208                       # number of overall MSHR misses
system.cpu.dcache.demand_mshr_miss_latency::.cpu.data     11553000                       # number of demand (read+write) MSHR miss cycles
system.cpu.dcache.demand_mshr_miss_latency::total     11553000                       # number of demand (read+write) MSHR miss cycles
system.cpu.dcache.overall_mshr_miss_latency::.cpu.data     12065000                       # number of overall MSHR miss cycles
system.cpu.dcache.overall_mshr_miss_latency::total     12065000                       # number of overall MSHR miss cycles
system.cpu.dcache.demand_mshr_miss_rate::.cpu.data     0.001893                       # mshr miss rate for demand accesses
system.cpu.dcache.demand_mshr_miss_rate::total     0.001893                       # mshr miss rate for demand accesses
system.cpu.dcache.overall_mshr_miss_rate::.cpu.data     0.001978                       # mshr miss rate for overall accesses
system.cpu.dcache.overall_mshr_miss_rate::total     0.001978                       # mshr miss rate for overall accesses
system.cpu.dcache.demand_avg_mshr_miss_latency::.cpu.data 58055.276382                       # average overall mshr miss latency
system.cpu.dcache.demand_avg_mshr_miss_latency::total 58055.276382                       # average overall mshr miss latency
system.cpu.dcache.overall_avg_mshr_miss_latency::.cpu.data 58004.807692                       # average overall mshr miss latency
system.cpu.dcache.overall_avg_mshr_miss_latency::total 58004.807692                       # average overall mshr miss latency
system.cpu.dcache.replacements                      2                       # number of replacements
system.cpu.dcache.ReadReq_hits::.cpu.data        58572                       # number of ReadReq hits
system.cpu.dcache.ReadReq_hits::total           58572                       # number of ReadReq hits
system.cpu.dcache.ReadReq_misses::.cpu.data          111                       # number of ReadReq misses
system.cpu.dcache.ReadReq_misses::total           111                       # number of ReadReq misses
system.cpu.dcache.ReadReq_miss_latency::.cpu.data      7035000                       # number of ReadReq miss cycles
system.cpu.dcache.ReadReq_miss_latency::total      7035000                       # number of ReadReq miss cycles
system.cpu.dcache.ReadReq_accesses::.cpu.data        58683                       # number of ReadReq accesses(hits+misses)
system.cpu.dcache.ReadReq_accesses::total        58683                       # number of ReadReq accesses(hits+misses)
system.cpu.dcache.ReadReq_miss_rate::.cpu.data     0.001892                       # miss rate for ReadReq accesses
system.cpu.dcache.ReadReq_miss_rate::total     0.001892                       # miss rate for ReadReq accesses
system.cpu.dcache.ReadReq_avg_miss_latency::.cpu.data 63378.378378                       # average ReadReq miss latency
system.cpu.dcache.ReadReq_avg_miss_latency::total 63378.378378                       # average ReadReq miss latency
system.cpu.dcache.ReadReq_mshr_hits::.cpu.data            9                       # number of ReadReq MSHR hits
system.cpu.dcache.ReadReq_mshr_hits::total            9                       # number of ReadReq MSHR hits
system.cpu.dcache.ReadReq_mshr_misses::.cpu.data          102                       # number of ReadReq MSHR misses
system.cpu.dcache.ReadReq_mshr_misses::total          102                       # number of ReadReq MSHR misses
system.cpu.dcache.ReadReq_mshr_miss_latency::.cpu.data      6087000                       # number of ReadReq MSHR miss cycles
system.cpu.dcache.ReadReq_mshr_miss_latency::total      6087000                       # number of ReadReq MSHR miss cycles
system.cpu.dcache.ReadReq_mshr_miss_rate::.cpu.data     0.001738                       # mshr miss rate for ReadReq accesses
system.cpu.dcache.ReadReq_mshr_miss_rate::total     0.001738                       # mshr miss rate for ReadReq accesses
system.cpu.dcache.ReadReq_avg_mshr_miss_latency::.cpu.data 59676.470588                       # average ReadReq mshr miss latency
system.cpu.dcache.ReadReq_avg_mshr_miss_latency::total 59676.470588                       # average ReadReq mshr miss latency
system.cpu.dcache.WriteReq_hits::.cpu.data        46289                       # number of WriteReq hits
system.cpu.dcache.WriteReq_hits::total          46289                       # number of WriteReq hits
system.cpu.dcache.WriteReq_misses::.cpu.data          144                       # number of WriteReq misses
system.cpu.dcache.WriteReq_misses::total          144                       # number of WriteReq misses
system.cpu.dcache.WriteReq_miss_latency::.cpu.data      8376000                       # number of WriteReq miss cycles
system.cpu.dcache.WriteReq_miss_latency::total      8376000                       # number of WriteReq miss cycles
system.cpu.dcache.WriteReq_accesses::.cpu.data        46433                       # number of WriteReq accesses(hits+misses)
system.cpu.dcache.WriteReq_accesses::total        46433                       # number of WriteReq accesses(hits+misses)
system.cpu.dcache.WriteReq_miss_rate::.cpu.data     0.003101                       # miss rate for WriteReq accesses
system.cpu.dcache.WriteReq_miss_rate::total     0.003101                       # miss rate for WriteReq accesses
system.cpu.dcache.WriteReq_avg_miss_latency::.cpu.data 58166.666667                       # average WriteReq miss latency
system.cpu.dcache.WriteReq_avg_miss_latency::total 58166.666667                       # average WriteReq miss latency
system.cpu.dcache.WriteReq_mshr_hits::.cpu.data           47                       # number of WriteReq MSHR hits
system.cpu.dcache.WriteReq_mshr_hits::total           47                       # number of WriteReq MSHR hits
system.cpu.dcache.WriteReq_mshr_misses::.cpu.data           97                       # number of WriteReq MSHR misses
system.cpu.dcache.WriteReq_mshr_misses::total           97                       # number of WriteReq MSHR misses
system.cpu.dcache.WriteReq_mshr_miss_latency::.cpu.data      5466000                       # number of WriteReq MSHR miss cycles
system.cpu.dcache.WriteReq_mshr_miss_latency::total      5466000                       # number of WriteReq MSHR miss cycles
system.cpu.dcache.WriteReq_mshr_miss_rate::.cpu.data     0.002089                       # mshr miss rate for WriteReq accesses
system.cpu.dcache.WriteReq_mshr_miss_rate::total     0.002089                       # mshr miss rate for WriteReq accesses
system.cpu.dcache.WriteReq_avg_mshr_miss_latency::.cpu.data 56350.515464                       # average WriteReq mshr miss latency
system.cpu.dcache.WriteReq_avg_mshr_miss_latency::total 56350.515464                       # average WriteReq mshr miss latency
system.cpu.dcache.SoftPFReq_hits::.cpu.data           28                       # number of SoftPFReq hits
system.cpu.dcache.SoftPFReq_hits::total            28                       # number of SoftPFReq hits
system.cpu.dcache.SoftPFReq_misses::.cpu.data           12                       # number of SoftPFReq misses
system.cpu.dcache.SoftPFReq_misses::total           12                       # number of SoftPFReq misses
system.cpu.dcache.SoftPFReq_accesses::.cpu.data           40                       # number of SoftPFReq accesses(hits+misses)
system.cpu.dcache.SoftPFReq_accesses::total           40                       # number of SoftPFReq accesses(hits+misses)
system.cpu.dcache.SoftPFReq_miss_rate::.cpu.data     0.300000                       # miss rate for SoftPFReq accesses
system.cpu.dcache.SoftPFReq_miss_rate::total     0.300000                       # miss rate for SoftPFReq accesses
system.cpu.dcache.SoftPFReq_mshr_misses::.cpu.data            9                       # number of SoftPFReq MSHR misses
system.cpu.dcache.SoftPFReq_mshr_misses::total            9                       # number of SoftPFReq MSHR misses
system.cpu.dcache.SoftPFReq_mshr_miss_latency::.cpu.data       512000                       # number of SoftPFReq MSHR miss cycles
system.cpu.dcache.SoftPFReq_mshr_miss_latency::total       512000                       # number of SoftPFReq MSHR miss cycles
system.cpu.dcache.SoftPFReq_mshr_miss_rate::.cpu.data     0.225000                       # mshr miss rate for SoftPFReq accesses
system.cpu.dcache.SoftPFReq_mshr_miss_rate::total     0.225000                       # mshr miss rate for SoftPFReq accesses
system.cpu.dcache.SoftPFReq_avg_mshr_miss_latency::.cpu.data 56888.888889                       # average SoftPFReq mshr miss latency
system.cpu.dcache.SoftPFReq_avg_mshr_miss_latency::total 56888.888889                       # average SoftPFReq mshr miss latency
system.cpu.dcache.LoadLockedReq_hits::.cpu.data         1091                       # number of LoadLockedReq hits
system.cpu.dcache.LoadLockedReq_hits::total         1091                       # number of LoadLockedReq hits
system.cpu.dcache.LoadLockedReq_misses::.cpu.data            1                       # number of LoadLockedReq misses
system.cpu.dcache.LoadLockedReq_misses::total            1                       # number of LoadLockedReq misses
system.cpu.dcache.LoadLockedReq_miss_latency::.cpu.data        53000                       # number of LoadLockedReq miss cycles
system.cpu.dcache.LoadLockedReq_miss_latency::total        53000                       # number of LoadLockedReq miss cycles
system.cpu.dcache.LoadLockedReq_accesses::.cpu.data         1092                       # number of LoadLockedReq accesses(hits+misses)
system.cpu.dcache.LoadLockedReq_accesses::total         1092                       # number of LoadLockedReq accesses(hits+misses)
system.cpu.dcache.LoadLockedReq_miss_rate::.cpu.data     0.000916                       # miss rate for LoadLockedReq accesses
system.cpu.dcache.LoadLockedReq_miss_rate::total     0.000916                       # miss rate for LoadLockedReq accesses
system.cpu.dcache.LoadLockedReq_avg_miss_latency::.cpu.data        53000                       # average LoadLockedReq miss latency
system.cpu.dcache.LoadLockedReq_avg_miss_latency::total        53000                       # average LoadLockedReq miss latency
system.cpu.dcache.LoadLockedReq_mshr_misses::.cpu.data            1                       # number of LoadLockedReq MSHR misses
system.cpu.dcache.LoadLockedReq_mshr_misses::total            1                       # number of LoadLockedReq MSHR misses
system.cpu.dcache.LoadLockedReq_mshr_miss_latency::.cpu.data        51000                       # number of LoadLockedReq MSHR miss cycles
system.cpu.dcache.LoadLockedReq_mshr_miss_latency::total        51000                       # number of LoadLockedReq MSHR miss cycles
system.cpu.dcache.LoadLockedReq_mshr_miss_rate::.cpu.data     0.000916                       # mshr miss rate for LoadLockedReq accesses
system.cpu.dcache.LoadLockedReq_mshr_miss_rate::total     0.000916                       # mshr miss rate for LoadLockedReq accesses
system.cpu.dcache.LoadLockedReq_avg_mshr_miss_latency::.cpu.data        51000                       # average LoadLockedReq mshr miss latency
system.cpu.dcache.LoadLockedReq_avg_mshr_miss_latency::total        51000                       # average LoadLockedReq mshr miss latency
system.cpu.dcache.StoreCondReq_hits::.cpu.data         1092                       # number of StoreCondReq hits
system.cpu.dcache.StoreCondReq_hits::total         1092                       # number of StoreCondReq hits
system.cpu.dcache.StoreCondReq_accesses::.cpu.data         1092                       # number of StoreCondReq accesses(hits+misses)
system.cpu.dcache.StoreCondReq_accesses::total         1092                       # number of StoreCondReq accesses(hits+misses)
system.cpu.dcache.tags.pwrStateResidencyTicks::UNDEFINED    471367000                       # Cumulative time (in ticks) in various power states
system.cpu.dcache.tags.tagsinuse           180.336057                       # Cycle average of tags in use
system.cpu.dcache.tags.total_refs              107281                       # Total number of references to valid blocks.
system.cpu.dcache.tags.sampled_refs               209                       # Sample count of references to valid blocks.
system.cpu.dcache.tags.avg_refs            513.306220                       # Average number of references to valid blocks.
system.cpu.dcache.tags.warmup_cycle            150000                       # Cycle when the warmup percentage was hit.
system.cpu.dcache.tags.occ_blocks::.cpu.data   180.336057                       # Average occupied blocks per requestor
system.cpu.dcache.tags.occ_percent::.cpu.data     0.176109                       # Average percentage of cache occupancy
system.cpu.dcache.tags.occ_percent::total     0.176109                       # Average percentage of cache occupancy
system.cpu.dcache.tags.occ_task_id_blocks::1024          207                       # Occupied blocks per task id
system.cpu.dcache.tags.age_task_id_blocks_1024::0           15                       # Occupied blocks per task id
system.cpu.dcache.tags.age_task_id_blocks_1024::2          192                       # Occupied blocks per task id
system.cpu.dcache.tags.occ_task_id_percent::1024     0.202148                       # Percentage of cache occupancy per task id
system.cpu.dcache.tags.tag_accesses            214889                       # Number of tag accesses
system.cpu.dcache.tags.data_accesses           214889                       # Number of data accesses
system.cpu.itb.walker.pwrStateResidencyTicks::UNDEFINED    471367000                       # Cumulative time (in ticks) in various power states
system.cpu.itb.stage2_mmu.stage2_tlb.walker.pwrStateResidencyTicks::UNDEFINED    471367000                       # Cumulative time (in ticks) in various power states

---------- End Simulation Statistics   ----------
