
---------- Begin Simulation Statistics ----------
final_tick                                87150179500                       # Number of ticks from beginning of simulation (restored from checkpoints and never reset)
host_inst_rate                                 508212                       # Simulator instruction rate (inst/s)
host_mem_usage                                 686780                       # Number of bytes of host memory used
host_op_rate                                   509209                       # Simulator op (including micro ops) rate (op/s)
host_seconds                                   196.77                       # Real time elapsed on the host
host_tick_rate                              442907218                       # Simulator tick rate (ticks/s)
sim_freq                                 1000000000000                       # Frequency of simulated ticks
sim_insts                                   100000001                       # Number of instructions simulated
sim_ops                                     100196363                       # Number of ops (including micro ops) simulated
sim_seconds                                  0.087150                       # Number of seconds simulated
sim_ticks                                 87150179500                       # Number of ticks simulated
system.cpu.branchPred.BTBCorrect                    0                       # Number of correct BTB predictions (this stat may not work properly.
system.cpu.branchPred.BTBHitPct             99.694269                       # BTB Hit Percentage
system.cpu.branchPred.BTBHits                 2095420                       # Number of BTB hits
system.cpu.branchPred.BTBLookups              2101846                       # Number of BTB lookups
system.cpu.branchPred.RASInCorrect                  5                       # Number of incorrect RAS predictions.
system.cpu.branchPred.condIncorrect             81341                       # Number of conditional branches incorrect
system.cpu.branchPred.condPredicted           3727707                       # Number of conditional branches predicted
system.cpu.branchPred.indirectHits                291                       # Number of indirect target hits.
system.cpu.branchPred.indirectLookups             808                       # Number of indirect predictor lookups.
system.cpu.branchPred.indirectMisses              517                       # Number of indirect misses.
system.cpu.branchPred.lookups                 4477805                       # Number of BP lookups
system.cpu.branchPred.usedRAS                   65343                       # Number of times the RAS was used to get a target.
system.cpu.branchPredindirectMispredicted          171                       # Number of mispredicted indirect branches.
system.cpu.committedInsts                   100000001                       # Number of instructions committed
system.cpu.committedOps                     100196363                       # Number of ops (including micro ops) committed
system.cpu.cpi                               1.743004                       # CPI: cycles per instruction
system.cpu.discardedOps                        190719                       # Number of ops (including micro ops) which were discarded before commit
system.cpu.dtb.accesses                             0                       # DTB accesses
system.cpu.dtb.align_faults                         0                       # Number of TLB faults due to alignment restrictions
system.cpu.dtb.domain_faults                        0                       # Number of TLB faults due to domain restrictions
system.cpu.dtb.flush_entries                        0                       # Number of entries that have been flushed from TLB
system.cpu.dtb.flush_tlb                            0                       # Number of times complete TLB was flushed
system.cpu.dtb.flush_tlb_asid                       0                       # Number of times TLB was flushed by ASID
system.cpu.dtb.flush_tlb_mva                        0                       # Number of times TLB was flushed by MVA
system.cpu.dtb.flush_tlb_mva_asid                   0                       # Number of times TLB was flushed by MVA & ASID
system.cpu.dtb.hits                                 0                       # DTB hits
system.cpu.dtb.inst_accesses                        0                       # ITB inst accesses
system.cpu.dtb.inst_hits                            0                       # ITB inst hits
system.cpu.dtb.inst_misses                          0                       # ITB inst misses
system.cpu.dtb.misses                               0                       # DTB misses
system.cpu.dtb.perms_faults                         0                       # Number of TLB faults due to permissions restrictions
system.cpu.dtb.prefetch_faults                      0                       # Number of TLB faults due to prefetch
system.cpu.dtb.read_accesses                        0                       # DTB read accesses
system.cpu.dtb.read_hits                            0                       # DTB read hits
system.cpu.dtb.read_misses                          0                       # DTB read misses
system.cpu.dtb.stage2_mmu.stage2_tlb.accesses            0                       # DTB accesses
system.cpu.dtb.stage2_mmu.stage2_tlb.align_faults            0                       # Number of TLB faults due to alignment restrictions
system.cpu.dtb.stage2_mmu.stage2_tlb.domain_faults            0                       # Number of TLB faults due to domain restrictions
system.cpu.dtb.stage2_mmu.stage2_tlb.flush_entries            0                       # Number of entries that have been flushed from TLB
system.cpu.dtb.stage2_mmu.stage2_tlb.flush_tlb            0                       # Number of times complete TLB was flushed
system.cpu.dtb.stage2_mmu.stage2_tlb.flush_tlb_asid            0                       # Number of times TLB was flushed by ASID
system.cpu.dtb.stage2_mmu.stage2_tlb.flush_tlb_mva            0                       # Number of times TLB was flushed by MVA
system.cpu.dtb.stage2_mmu.stage2_tlb.flush_tlb_mva_asid            0                       # Number of times TLB was flushed by MVA & ASID
system.cpu.dtb.stage2_mmu.stage2_tlb.hits            0                       # DTB hits
system.cpu.dtb.stage2_mmu.stage2_tlb.inst_accesses            0                       # ITB inst accesses
system.cpu.dtb.stage2_mmu.stage2_tlb.inst_hits            0                       # ITB inst hits
system.cpu.dtb.stage2_mmu.stage2_tlb.inst_misses            0                       # ITB inst misses
system.cpu.dtb.stage2_mmu.stage2_tlb.misses            0                       # DTB misses
system.cpu.dtb.stage2_mmu.stage2_tlb.perms_faults            0                       # Number of TLB faults due to permissions restrictions
system.cpu.dtb.stage2_mmu.stage2_tlb.prefetch_faults            0                       # Number of TLB faults due to prefetch
system.cpu.dtb.stage2_mmu.stage2_tlb.read_accesses            0                       # DTB read accesses
system.cpu.dtb.stage2_mmu.stage2_tlb.read_hits            0                       # DTB read hits
system.cpu.dtb.stage2_mmu.stage2_tlb.read_misses            0                       # DTB read misses
system.cpu.dtb.stage2_mmu.stage2_tlb.walker.walkRequestOrigin_Requested::Data            0                       # Table walker requests started/completed, data/inst
system.cpu.dtb.stage2_mmu.stage2_tlb.walker.walkRequestOrigin_Requested::Inst            0                       # Table walker requests started/completed, data/inst
system.cpu.dtb.stage2_mmu.stage2_tlb.walker.walkRequestOrigin_Requested::total            0                       # Table walker requests started/completed, data/inst
system.cpu.dtb.stage2_mmu.stage2_tlb.walker.walkRequestOrigin_Completed::Data            0                       # Table walker requests started/completed, data/inst
system.cpu.dtb.stage2_mmu.stage2_tlb.walker.walkRequestOrigin_Completed::Inst            0                       # Table walker requests started/completed, data/inst
system.cpu.dtb.stage2_mmu.stage2_tlb.walker.walkRequestOrigin_Completed::total            0                       # Table walker requests started/completed, data/inst
system.cpu.dtb.stage2_mmu.stage2_tlb.walker.walkRequestOrigin::total            0                       # Table walker requests started/completed, data/inst
system.cpu.dtb.stage2_mmu.stage2_tlb.walker.walks            0                       # Table walker walks requested
system.cpu.dtb.stage2_mmu.stage2_tlb.write_accesses            0                       # DTB write accesses
system.cpu.dtb.stage2_mmu.stage2_tlb.write_hits            0                       # DTB write hits
system.cpu.dtb.stage2_mmu.stage2_tlb.write_misses            0                       # DTB write misses
system.cpu.dtb.walker.walkRequestOrigin_Requested::Data            0                       # Table walker requests started/completed, data/inst
system.cpu.dtb.walker.walkRequestOrigin_Requested::Inst            0                       # Table walker requests started/completed, data/inst
system.cpu.dtb.walker.walkRequestOrigin_Requested::total            0                       # Table walker requests started/completed, data/inst
system.cpu.dtb.walker.walkRequestOrigin_Completed::Data            0                       # Table walker requests started/completed, data/inst
system.cpu.dtb.walker.walkRequestOrigin_Completed::Inst            0                       # Table walker requests started/completed, data/inst
system.cpu.dtb.walker.walkRequestOrigin_Completed::total            0                       # Table walker requests started/completed, data/inst
system.cpu.dtb.walker.walkRequestOrigin::total            0                       # Table walker requests started/completed, data/inst
system.cpu.dtb.walker.walks                         0                       # Table walker walks requested
system.cpu.dtb.write_accesses                       0                       # DTB write accesses
system.cpu.dtb.write_hits                           0                       # DTB write hits
system.cpu.dtb.write_misses                         0                       # DTB write misses
system.cpu.fetch2.amo_instructions                  0                       # Number of memory atomic instructions successfully decoded
system.cpu.fetch2.fp_instructions                   0                       # Number of floating point instructions successfully decoded
system.cpu.fetch2.int_instructions           42610299                       # Number of integer instructions successfully decoded
system.cpu.fetch2.load_instructions          43402493                       # Number of memory load instructions successfully decoded
system.cpu.fetch2.store_instructions         11001456                       # Number of memory store instructions successfully decoded
system.cpu.fetch2.vec_instructions                  0                       # Number of SIMD instructions successfully decoded
system.cpu.idleCycles                        41315437                       # Total number of cycles that the object has spent stopped
system.cpu.ipc                               0.573722                       # IPC: instructions per cycle
system.cpu.itb.accesses                             0                       # DTB accesses
system.cpu.itb.align_faults                         0                       # Number of TLB faults due to alignment restrictions
system.cpu.itb.domain_faults                        0                       # Number of TLB faults due to domain restrictions
system.cpu.itb.flush_entries                        0                       # Number of entries that have been flushed from TLB
system.cpu.itb.flush_tlb                            0                       # Number of times complete TLB was flushed
system.cpu.itb.flush_tlb_asid                       0                       # Number of times TLB was flushed by ASID
system.cpu.itb.flush_tlb_mva                        0                       # Number of times TLB was flushed by MVA
system.cpu.itb.flush_tlb_mva_asid                   0                       # Number of times TLB was flushed by MVA & ASID
system.cpu.itb.hits                                 0                       # DTB hits
system.cpu.itb.inst_accesses                        0                       # ITB inst accesses
system.cpu.itb.inst_hits                            0                       # ITB inst hits
system.cpu.itb.inst_misses                          0                       # ITB inst misses
system.cpu.itb.misses                               0                       # DTB misses
system.cpu.itb.perms_faults                         0                       # Number of TLB faults due to permissions restrictions
system.cpu.itb.prefetch_faults                      0                       # Number of TLB faults due to prefetch
system.cpu.itb.read_accesses                        0                       # DTB read accesses
system.cpu.itb.read_hits                            0                       # DTB read hits
system.cpu.itb.read_misses                          0                       # DTB read misses
system.cpu.itb.stage2_mmu.stage2_tlb.accesses            0                       # DTB accesses
system.cpu.itb.stage2_mmu.stage2_tlb.align_faults            0                       # Number of TLB faults due to alignment restrictions
system.cpu.itb.stage2_mmu.stage2_tlb.domain_faults            0                       # Number of TLB faults due to domain restrictions
system.cpu.itb.stage2_mmu.stage2_tlb.flush_entries            0                       # Number of entries that have been flushed from TLB
system.cpu.itb.stage2_mmu.stage2_tlb.flush_tlb            0                       # Number of times complete TLB was flushed
system.cpu.itb.stage2_mmu.stage2_tlb.flush_tlb_asid            0                       # Number of times TLB was flushed by ASID
system.cpu.itb.stage2_mmu.stage2_tlb.flush_tlb_mva            0                       # Number of times TLB was flushed by MVA
system.cpu.itb.stage2_mmu.stage2_tlb.flush_tlb_mva_asid            0                       # Number of times TLB was flushed by MVA & ASID
system.cpu.itb.stage2_mmu.stage2_tlb.hits            0                       # DTB hits
system.cpu.itb.stage2_mmu.stage2_tlb.inst_accesses            0                       # ITB inst accesses
system.cpu.itb.stage2_mmu.stage2_tlb.inst_hits            0                       # ITB inst hits
system.cpu.itb.stage2_mmu.stage2_tlb.inst_misses            0                       # ITB inst misses
system.cpu.itb.stage2_mmu.stage2_tlb.misses            0                       # DTB misses
system.cpu.itb.stage2_mmu.stage2_tlb.perms_faults            0                       # Number of TLB faults due to permissions restrictions
system.cpu.itb.stage2_mmu.stage2_tlb.prefetch_faults            0                       # Number of TLB faults due to prefetch
system.cpu.itb.stage2_mmu.stage2_tlb.read_accesses            0                       # DTB read accesses
system.cpu.itb.stage2_mmu.stage2_tlb.read_hits            0                       # DTB read hits
system.cpu.itb.stage2_mmu.stage2_tlb.read_misses            0                       # DTB read misses
system.cpu.itb.stage2_mmu.stage2_tlb.walker.walkRequestOrigin_Requested::Data            0                       # Table walker requests started/completed, data/inst
system.cpu.itb.stage2_mmu.stage2_tlb.walker.walkRequestOrigin_Requested::Inst            0                       # Table walker requests started/completed, data/inst
system.cpu.itb.stage2_mmu.stage2_tlb.walker.walkRequestOrigin_Requested::total            0                       # Table walker requests started/completed, data/inst
system.cpu.itb.stage2_mmu.stage2_tlb.walker.walkRequestOrigin_Completed::Data            0                       # Table walker requests started/completed, data/inst
system.cpu.itb.stage2_mmu.stage2_tlb.walker.walkRequestOrigin_Completed::Inst            0                       # Table walker requests started/completed, data/inst
system.cpu.itb.stage2_mmu.stage2_tlb.walker.walkRequestOrigin_Completed::total            0                       # Table walker requests started/completed, data/inst
system.cpu.itb.stage2_mmu.stage2_tlb.walker.walkRequestOrigin::total            0                       # Table walker requests started/completed, data/inst
system.cpu.itb.stage2_mmu.stage2_tlb.walker.walks            0                       # Table walker walks requested
system.cpu.itb.stage2_mmu.stage2_tlb.write_accesses            0                       # DTB write accesses
system.cpu.itb.stage2_mmu.stage2_tlb.write_hits            0                       # DTB write hits
system.cpu.itb.stage2_mmu.stage2_tlb.write_misses            0                       # DTB write misses
system.cpu.itb.walker.walkRequestOrigin_Requested::Data            0                       # Table walker requests started/completed, data/inst
system.cpu.itb.walker.walkRequestOrigin_Requested::Inst            0                       # Table walker requests started/completed, data/inst
system.cpu.itb.walker.walkRequestOrigin_Requested::total            0                       # Table walker requests started/completed, data/inst
system.cpu.itb.walker.walkRequestOrigin_Completed::Data            0                       # Table walker requests started/completed, data/inst
system.cpu.itb.walker.walkRequestOrigin_Completed::Inst            0                       # Table walker requests started/completed, data/inst
system.cpu.itb.walker.walkRequestOrigin_Completed::total            0                       # Table walker requests started/completed, data/inst
system.cpu.itb.walker.walkRequestOrigin::total            0                       # Table walker requests started/completed, data/inst
system.cpu.itb.walker.walks                         0                       # Table walker walks requested
system.cpu.itb.write_accesses                       0                       # DTB write accesses
system.cpu.itb.write_hits                           0                       # DTB write hits
system.cpu.itb.write_misses                         0                       # DTB write misses
system.cpu.numCycles                        174300359                       # number of cpu cycles simulated
system.cpu.numFetchSuspends                         0                       # Number of times Execute suspended instruction fetching
system.cpu.numWorkItemsCompleted                    0                       # number of work items this cpu completed
system.cpu.numWorkItemsStarted                      0                       # number of work items this cpu started
system.cpu.op_class_0::No_OpClass                   0      0.00%      0.00% # Class of committed instruction
system.cpu.op_class_0::IntAlu                46531400     46.44%     46.44% # Class of committed instruction
system.cpu.op_class_0::IntMult                  20720      0.02%     46.46% # Class of committed instruction
system.cpu.op_class_0::IntDiv                       0      0.00%     46.46% # Class of committed instruction
system.cpu.op_class_0::FloatAdd                     0      0.00%     46.46% # Class of committed instruction
system.cpu.op_class_0::FloatCmp                     0      0.00%     46.46% # Class of committed instruction
system.cpu.op_class_0::FloatCvt                     0      0.00%     46.46% # Class of committed instruction
system.cpu.op_class_0::FloatMult                    0      0.00%     46.46% # Class of committed instruction
system.cpu.op_class_0::FloatMultAcc                 0      0.00%     46.46% # Class of committed instruction
system.cpu.op_class_0::FloatDiv                     0      0.00%     46.46% # Class of committed instruction
system.cpu.op_class_0::FloatMisc                    0      0.00%     46.46% # Class of committed instruction
system.cpu.op_class_0::FloatSqrt                    0      0.00%     46.46% # Class of committed instruction
system.cpu.op_class_0::SimdAdd                      0      0.00%     46.46% # Class of committed instruction
system.cpu.op_class_0::SimdAddAcc                   0      0.00%     46.46% # Class of committed instruction
system.cpu.op_class_0::SimdAlu                      0      0.00%     46.46% # Class of committed instruction
system.cpu.op_class_0::SimdCmp                      0      0.00%     46.46% # Class of committed instruction
system.cpu.op_class_0::SimdCvt                      0      0.00%     46.46% # Class of committed instruction
system.cpu.op_class_0::SimdMisc                     0      0.00%     46.46% # Class of committed instruction
system.cpu.op_class_0::SimdMult                     0      0.00%     46.46% # Class of committed instruction
system.cpu.op_class_0::SimdMultAcc                  0      0.00%     46.46% # Class of committed instruction
system.cpu.op_class_0::SimdShift                    0      0.00%     46.46% # Class of committed instruction
system.cpu.op_class_0::SimdShiftAcc                 0      0.00%     46.46% # Class of committed instruction
system.cpu.op_class_0::SimdDiv                      0      0.00%     46.46% # Class of committed instruction
system.cpu.op_class_0::SimdSqrt                     0      0.00%     46.46% # Class of committed instruction
system.cpu.op_class_0::SimdFloatAdd                 0      0.00%     46.46% # Class of committed instruction
system.cpu.op_class_0::SimdFloatAlu                 0      0.00%     46.46% # Class of committed instruction
system.cpu.op_class_0::SimdFloatCmp                 0      0.00%     46.46% # Class of committed instruction
system.cpu.op_class_0::SimdFloatCvt                 0      0.00%     46.46% # Class of committed instruction
system.cpu.op_class_0::SimdFloatDiv                 0      0.00%     46.46% # Class of committed instruction
system.cpu.op_class_0::SimdFloatMisc               18      0.00%     46.46% # Class of committed instruction
system.cpu.op_class_0::SimdFloatMult                0      0.00%     46.46% # Class of committed instruction
system.cpu.op_class_0::SimdFloatMultAcc             0      0.00%     46.46% # Class of committed instruction
system.cpu.op_class_0::SimdFloatSqrt                0      0.00%     46.46% # Class of committed instruction
system.cpu.op_class_0::SimdReduceAdd                0      0.00%     46.46% # Class of committed instruction
system.cpu.op_class_0::SimdReduceAlu                0      0.00%     46.46% # Class of committed instruction
system.cpu.op_class_0::SimdReduceCmp                0      0.00%     46.46% # Class of committed instruction
system.cpu.op_class_0::SimdFloatReduceAdd            0      0.00%     46.46% # Class of committed instruction
system.cpu.op_class_0::SimdFloatReduceCmp            0      0.00%     46.46% # Class of committed instruction
system.cpu.op_class_0::SimdAes                      0      0.00%     46.46% # Class of committed instruction
system.cpu.op_class_0::SimdAesMix                   0      0.00%     46.46% # Class of committed instruction
system.cpu.op_class_0::SimdSha1Hash                 0      0.00%     46.46% # Class of committed instruction
system.cpu.op_class_0::SimdSha1Hash2                0      0.00%     46.46% # Class of committed instruction
system.cpu.op_class_0::SimdSha256Hash               0      0.00%     46.46% # Class of committed instruction
system.cpu.op_class_0::SimdSha256Hash2              0      0.00%     46.46% # Class of committed instruction
system.cpu.op_class_0::SimdShaSigma2                0      0.00%     46.46% # Class of committed instruction
system.cpu.op_class_0::SimdShaSigma3                0      0.00%     46.46% # Class of committed instruction
system.cpu.op_class_0::SimdPredAlu                  0      0.00%     46.46% # Class of committed instruction
system.cpu.op_class_0::MemRead               42693601     42.61%     89.07% # Class of committed instruction
system.cpu.op_class_0::MemWrite              10950624     10.93%    100.00% # Class of committed instruction
system.cpu.op_class_0::FloatMemRead                 0      0.00%    100.00% # Class of committed instruction
system.cpu.op_class_0::FloatMemWrite                0      0.00%    100.00% # Class of committed instruction
system.cpu.op_class_0::IprAccess                    0      0.00%    100.00% # Class of committed instruction
system.cpu.op_class_0::InstPrefetch                 0      0.00%    100.00% # Class of committed instruction
system.cpu.op_class_0::total                100196363                       # Class of committed instruction
system.cpu.tickCycles                       132984922                       # Number of cycles that the object actually ticked
system.cpu.workload.numSyscalls                    84                       # Number of system calls
system.membus.snoop_filter.hit_multi_requests            0                       # Number of requests hitting in the snoop filter with multiple (>1) holders of the requested data.
system.membus.snoop_filter.hit_multi_snoops            0                       # Number of snoops hitting in the snoop filter with multiple (>1) holders of the requested data.
system.membus.snoop_filter.hit_single_requests       210151                       # Number of requests hitting in the snoop filter with a single holder of the requested data.
system.membus.snoop_filter.hit_single_snoops            0                       # Number of snoops hitting in the snoop filter with a single holder of the requested data.
system.membus.snoop_filter.tot_requests        437118                       # Total number of requests made to the snoop filter.
system.membus.snoop_filter.tot_snoops               0                       # Total number of snoops made to the snoop filter.
system.tol2bus.snoop_filter.hit_multi_requests          674                       # Number of requests hitting in the snoop filter with multiple (>1) holders of the requested data.
system.tol2bus.snoop_filter.hit_multi_snoops            0                       # Number of snoops hitting in the snoop filter with multiple (>1) holders of the requested data.
system.tol2bus.snoop_filter.hit_single_requests       868181                       # Number of requests hitting in the snoop filter with a single holder of the requested data.
system.tol2bus.snoop_filter.hit_single_snoops          567                       # Number of snoops hitting in the snoop filter with a single holder of the requested data.
system.tol2bus.snoop_filter.tot_requests      1737829                       # Total number of requests made to the snoop filter.
system.tol2bus.snoop_filter.tot_snoops            567                       # Total number of snoops made to the snoop filter.
system.membus.pwrStateResidencyTicks::UNDEFINED  87150179500                       # Cumulative time (in ticks) in various power states
system.membus.trans_dist::ReadResp              81915                       # Transaction distribution
system.membus.trans_dist::WritebackDirty       140351                       # Transaction distribution
system.membus.trans_dist::CleanEvict            69793                       # Transaction distribution
system.membus.trans_dist::ReadExReq            145059                       # Transaction distribution
system.membus.trans_dist::ReadExResp           145059                       # Transaction distribution
system.membus.trans_dist::ReadSharedReq         81915                       # Transaction distribution
system.membus.pkt_count_system.l2.mem_side::system.mem_ctrls.port       664092                       # Packet count per connected master and slave (bytes)
system.membus.pkt_count::total                 664092                       # Packet count per connected master and slave (bytes)
system.membus.pkt_size_system.l2.mem_side::system.mem_ctrls.port     23508800                       # Cumulative packet size per connected master and slave (bytes)
system.membus.pkt_size::total                23508800                       # Cumulative packet size per connected master and slave (bytes)
system.membus.snoops                                0                       # Total snoops (count)
system.membus.snoopTraffic                          0                       # Total snoop traffic (bytes)
system.membus.snoop_fanout::samples            226974                       # Request fanout histogram
system.membus.snoop_fanout::mean                    0                       # Request fanout histogram
system.membus.snoop_fanout::stdev                   0                       # Request fanout histogram
system.membus.snoop_fanout::underflows              0      0.00%      0.00% # Request fanout histogram
system.membus.snoop_fanout::0                  226974    100.00%    100.00% # Request fanout histogram
system.membus.snoop_fanout::1                       0      0.00%    100.00% # Request fanout histogram
system.membus.snoop_fanout::overflows               0      0.00%    100.00% # Request fanout histogram
system.membus.snoop_fanout::min_value               0                       # Request fanout histogram
system.membus.snoop_fanout::max_value               0                       # Request fanout histogram
system.membus.snoop_fanout::total              226974                       # Request fanout histogram
system.membus.respLayer1.occupancy         1226192000                       # Layer occupancy (ticks)
system.membus.respLayer1.utilization              1.4                       # Layer utilization (%)
system.membus.reqLayer0.occupancy          1045278000                       # Layer occupancy (ticks)
system.membus.reqLayer0.utilization               1.2                       # Layer utilization (%)
system.tol2bus.pwrStateResidencyTicks::UNDEFINED  87150179500                       # Cumulative time (in ticks) in various power states
system.tol2bus.trans_dist::ReadResp            548005                       # Transaction distribution
system.tol2bus.trans_dist::WritebackDirty       917122                       # Transaction distribution
system.tol2bus.trans_dist::WritebackClean          302                       # Transaction distribution
system.tol2bus.trans_dist::CleanEvict          161467                       # Transaction distribution
system.tol2bus.trans_dist::ReadExReq           321644                       # Transaction distribution
system.tol2bus.trans_dist::ReadExResp          321644                       # Transaction distribution
system.tol2bus.trans_dist::ReadCleanReq           747                       # Transaction distribution
system.tol2bus.trans_dist::ReadSharedReq       547258                       # Transaction distribution
system.tol2bus.pkt_count_system.cpu.icache.mem_side::system.l2.cpu_side         1796                       # Packet count per connected master and slave (bytes)
system.tol2bus.pkt_count_system.cpu.dcache.mem_side::system.l2.cpu_side      2605682                       # Packet count per connected master and slave (bytes)
system.tol2bus.pkt_count::total               2607478                       # Packet count per connected master and slave (bytes)
system.tol2bus.pkt_size_system.cpu.icache.mem_side::system.l2.cpu_side        67136                       # Cumulative packet size per connected master and slave (bytes)
system.tol2bus.pkt_size_system.cpu.dcache.mem_side::system.l2.cpu_side    105323072                       # Cumulative packet size per connected master and slave (bytes)
system.tol2bus.pkt_size::total              105390208                       # Cumulative packet size per connected master and slave (bytes)
system.tol2bus.snoops                          210711                       # Total snoops (count)
system.tol2bus.snoopTraffic                   8982464                       # Total snoop traffic (bytes)
system.tol2bus.snoop_fanout::samples          1080360                       # Request fanout histogram
system.tol2bus.snoop_fanout::mean            0.001150                       # Request fanout histogram
system.tol2bus.snoop_fanout::stdev           0.033887                       # Request fanout histogram
system.tol2bus.snoop_fanout::underflows             0      0.00%      0.00% # Request fanout histogram
system.tol2bus.snoop_fanout::0                1079118     99.89%     99.89% # Request fanout histogram
system.tol2bus.snoop_fanout::1                   1242      0.11%    100.00% # Request fanout histogram
system.tol2bus.snoop_fanout::2                      0      0.00%    100.00% # Request fanout histogram
system.tol2bus.snoop_fanout::overflows              0      0.00%    100.00% # Request fanout histogram
system.tol2bus.snoop_fanout::min_value              0                       # Request fanout histogram
system.tol2bus.snoop_fanout::max_value              1                       # Request fanout histogram
system.tol2bus.snoop_fanout::total            1080360                       # Request fanout histogram
system.tol2bus.reqLayer0.occupancy         1645987500                       # Layer occupancy (ticks)
system.tol2bus.reqLayer0.utilization              1.9                       # Layer utilization (%)
system.tol2bus.respLayer1.occupancy        1303354996                       # Layer occupancy (ticks)
system.tol2bus.respLayer1.utilization             1.5                       # Layer utilization (%)
system.tol2bus.respLayer0.occupancy           1120500                       # Layer occupancy (ticks)
system.tol2bus.respLayer0.utilization             0.0                       # Layer utilization (%)
system.voltage_domain.voltage                       1                       # Voltage in Volts
system.clk_domain.clock                          1000                       # Clock period in ticks
system.l2.pwrStateResidencyTicks::UNDEFINED  87150179500                       # Cumulative time (in ticks) in various power states
system.l2.demand_hits::.cpu.inst                   79                       # number of demand (read+write) hits
system.l2.demand_hits::.cpu.data               642592                       # number of demand (read+write) hits
system.l2.demand_hits::total                   642671                       # number of demand (read+write) hits
system.l2.overall_hits::.cpu.inst                  79                       # number of overall hits
system.l2.overall_hits::.cpu.data              642592                       # number of overall hits
system.l2.overall_hits::total                  642671                       # number of overall hits
system.l2.demand_misses::.cpu.inst                668                       # number of demand (read+write) misses
system.l2.demand_misses::.cpu.data             226310                       # number of demand (read+write) misses
system.l2.demand_misses::total                 226978                       # number of demand (read+write) misses
system.l2.overall_misses::.cpu.inst               668                       # number of overall misses
system.l2.overall_misses::.cpu.data            226310                       # number of overall misses
system.l2.overall_misses::total                226978                       # number of overall misses
system.l2.demand_miss_latency::.cpu.inst     52974000                       # number of demand (read+write) miss cycles
system.l2.demand_miss_latency::.cpu.data  19377225000                       # number of demand (read+write) miss cycles
system.l2.demand_miss_latency::total      19430199000                       # number of demand (read+write) miss cycles
system.l2.overall_miss_latency::.cpu.inst     52974000                       # number of overall miss cycles
system.l2.overall_miss_latency::.cpu.data  19377225000                       # number of overall miss cycles
system.l2.overall_miss_latency::total     19430199000                       # number of overall miss cycles
system.l2.demand_accesses::.cpu.inst              747                       # number of demand (read+write) accesses
system.l2.demand_accesses::.cpu.data           868902                       # number of demand (read+write) accesses
system.l2.demand_accesses::total               869649                       # number of demand (read+write) accesses
system.l2.overall_accesses::.cpu.inst             747                       # number of overall (read+write) accesses
system.l2.overall_accesses::.cpu.data          868902                       # number of overall (read+write) accesses
system.l2.overall_accesses::total              869649                       # number of overall (read+write) accesses
system.l2.demand_miss_rate::.cpu.inst        0.894244                       # miss rate for demand accesses
system.l2.demand_miss_rate::.cpu.data        0.260455                       # miss rate for demand accesses
system.l2.demand_miss_rate::total            0.261000                       # miss rate for demand accesses
system.l2.overall_miss_rate::.cpu.inst       0.894244                       # miss rate for overall accesses
system.l2.overall_miss_rate::.cpu.data       0.260455                       # miss rate for overall accesses
system.l2.overall_miss_rate::total           0.261000                       # miss rate for overall accesses
system.l2.demand_avg_miss_latency::.cpu.inst 79302.395210                       # average overall miss latency
system.l2.demand_avg_miss_latency::.cpu.data 85622.486854                       # average overall miss latency
system.l2.demand_avg_miss_latency::total 85603.886720                       # average overall miss latency
system.l2.overall_avg_miss_latency::.cpu.inst 79302.395210                       # average overall miss latency
system.l2.overall_avg_miss_latency::.cpu.data 85622.486854                       # average overall miss latency
system.l2.overall_avg_miss_latency::total 85603.886720                       # average overall miss latency
system.l2.blocked_cycles::no_mshrs                  0                       # number of cycles access was blocked
system.l2.blocked_cycles::no_targets                0                       # number of cycles access was blocked
system.l2.blocked::no_mshrs                         0                       # number of cycles access was blocked
system.l2.blocked::no_targets                       0                       # number of cycles access was blocked
system.l2.avg_blocked_cycles::no_mshrs            nan                       # average number of cycles each access was blocked
system.l2.avg_blocked_cycles::no_targets          nan                       # average number of cycles each access was blocked
system.l2.writebacks::.writebacks              140351                       # number of writebacks
system.l2.writebacks::total                    140351                       # number of writebacks
system.l2.demand_mshr_hits::.cpu.data               4                       # number of demand (read+write) MSHR hits
system.l2.demand_mshr_hits::total                   4                       # number of demand (read+write) MSHR hits
system.l2.overall_mshr_hits::.cpu.data              4                       # number of overall MSHR hits
system.l2.overall_mshr_hits::total                  4                       # number of overall MSHR hits
system.l2.demand_mshr_misses::.cpu.inst           668                       # number of demand (read+write) MSHR misses
system.l2.demand_mshr_misses::.cpu.data        226306                       # number of demand (read+write) MSHR misses
system.l2.demand_mshr_misses::total            226974                       # number of demand (read+write) MSHR misses
system.l2.overall_mshr_misses::.cpu.inst          668                       # number of overall MSHR misses
system.l2.overall_mshr_misses::.cpu.data       226306                       # number of overall MSHR misses
system.l2.overall_mshr_misses::total           226974                       # number of overall MSHR misses
system.l2.demand_mshr_miss_latency::.cpu.inst     46294000                       # number of demand (read+write) MSHR miss cycles
system.l2.demand_mshr_miss_latency::.cpu.data  17113706000                       # number of demand (read+write) MSHR miss cycles
system.l2.demand_mshr_miss_latency::total  17160000000                       # number of demand (read+write) MSHR miss cycles
system.l2.overall_mshr_miss_latency::.cpu.inst     46294000                       # number of overall MSHR miss cycles
system.l2.overall_mshr_miss_latency::.cpu.data  17113706000                       # number of overall MSHR miss cycles
system.l2.overall_mshr_miss_latency::total  17160000000                       # number of overall MSHR miss cycles
system.l2.demand_mshr_miss_rate::.cpu.inst     0.894244                       # mshr miss rate for demand accesses
system.l2.demand_mshr_miss_rate::.cpu.data     0.260451                       # mshr miss rate for demand accesses
system.l2.demand_mshr_miss_rate::total       0.260995                       # mshr miss rate for demand accesses
system.l2.overall_mshr_miss_rate::.cpu.inst     0.894244                       # mshr miss rate for overall accesses
system.l2.overall_mshr_miss_rate::.cpu.data     0.260451                       # mshr miss rate for overall accesses
system.l2.overall_mshr_miss_rate::total      0.260995                       # mshr miss rate for overall accesses
system.l2.demand_avg_mshr_miss_latency::.cpu.inst 69302.395210                       # average overall mshr miss latency
system.l2.demand_avg_mshr_miss_latency::.cpu.data 75621.972020                       # average overall mshr miss latency
system.l2.demand_avg_mshr_miss_latency::total 75603.373074                       # average overall mshr miss latency
system.l2.overall_avg_mshr_miss_latency::.cpu.inst 69302.395210                       # average overall mshr miss latency
system.l2.overall_avg_mshr_miss_latency::.cpu.data 75621.972020                       # average overall mshr miss latency
system.l2.overall_avg_mshr_miss_latency::total 75603.373074                       # average overall mshr miss latency
system.l2.replacements                         210711                       # number of replacements
system.l2.WritebackDirty_hits::.writebacks       776771                       # number of WritebackDirty hits
system.l2.WritebackDirty_hits::total           776771                       # number of WritebackDirty hits
system.l2.WritebackDirty_accesses::.writebacks       776771                       # number of WritebackDirty accesses(hits+misses)
system.l2.WritebackDirty_accesses::total       776771                       # number of WritebackDirty accesses(hits+misses)
system.l2.WritebackClean_hits::.writebacks          293                       # number of WritebackClean hits
system.l2.WritebackClean_hits::total              293                       # number of WritebackClean hits
system.l2.WritebackClean_accesses::.writebacks          293                       # number of WritebackClean accesses(hits+misses)
system.l2.WritebackClean_accesses::total          293                       # number of WritebackClean accesses(hits+misses)
system.l2.ReadExReq_hits::.cpu.data            176585                       # number of ReadExReq hits
system.l2.ReadExReq_hits::total                176585                       # number of ReadExReq hits
system.l2.ReadExReq_misses::.cpu.data          145059                       # number of ReadExReq misses
system.l2.ReadExReq_misses::total              145059                       # number of ReadExReq misses
system.l2.ReadExReq_miss_latency::.cpu.data  12769588000                       # number of ReadExReq miss cycles
system.l2.ReadExReq_miss_latency::total   12769588000                       # number of ReadExReq miss cycles
system.l2.ReadExReq_accesses::.cpu.data        321644                       # number of ReadExReq accesses(hits+misses)
system.l2.ReadExReq_accesses::total            321644                       # number of ReadExReq accesses(hits+misses)
system.l2.ReadExReq_miss_rate::.cpu.data     0.450992                       # miss rate for ReadExReq accesses
system.l2.ReadExReq_miss_rate::total         0.450992                       # miss rate for ReadExReq accesses
system.l2.ReadExReq_avg_miss_latency::.cpu.data 88030.304910                       # average ReadExReq miss latency
system.l2.ReadExReq_avg_miss_latency::total 88030.304910                       # average ReadExReq miss latency
system.l2.ReadExReq_mshr_misses::.cpu.data       145059                       # number of ReadExReq MSHR misses
system.l2.ReadExReq_mshr_misses::total         145059                       # number of ReadExReq MSHR misses
system.l2.ReadExReq_mshr_miss_latency::.cpu.data  11318998000                       # number of ReadExReq MSHR miss cycles
system.l2.ReadExReq_mshr_miss_latency::total  11318998000                       # number of ReadExReq MSHR miss cycles
system.l2.ReadExReq_mshr_miss_rate::.cpu.data     0.450992                       # mshr miss rate for ReadExReq accesses
system.l2.ReadExReq_mshr_miss_rate::total     0.450992                       # mshr miss rate for ReadExReq accesses
system.l2.ReadExReq_avg_mshr_miss_latency::.cpu.data 78030.304910                       # average ReadExReq mshr miss latency
system.l2.ReadExReq_avg_mshr_miss_latency::total 78030.304910                       # average ReadExReq mshr miss latency
system.l2.ReadCleanReq_hits::.cpu.inst             79                       # number of ReadCleanReq hits
system.l2.ReadCleanReq_hits::total                 79                       # number of ReadCleanReq hits
system.l2.ReadCleanReq_misses::.cpu.inst          668                       # number of ReadCleanReq misses
system.l2.ReadCleanReq_misses::total              668                       # number of ReadCleanReq misses
system.l2.ReadCleanReq_miss_latency::.cpu.inst     52974000                       # number of ReadCleanReq miss cycles
system.l2.ReadCleanReq_miss_latency::total     52974000                       # number of ReadCleanReq miss cycles
system.l2.ReadCleanReq_accesses::.cpu.inst          747                       # number of ReadCleanReq accesses(hits+misses)
system.l2.ReadCleanReq_accesses::total            747                       # number of ReadCleanReq accesses(hits+misses)
system.l2.ReadCleanReq_miss_rate::.cpu.inst     0.894244                       # miss rate for ReadCleanReq accesses
system.l2.ReadCleanReq_miss_rate::total      0.894244                       # miss rate for ReadCleanReq accesses
system.l2.ReadCleanReq_avg_miss_latency::.cpu.inst 79302.395210                       # average ReadCleanReq miss latency
system.l2.ReadCleanReq_avg_miss_latency::total 79302.395210                       # average ReadCleanReq miss latency
system.l2.ReadCleanReq_mshr_misses::.cpu.inst          668                       # number of ReadCleanReq MSHR misses
system.l2.ReadCleanReq_mshr_misses::total          668                       # number of ReadCleanReq MSHR misses
system.l2.ReadCleanReq_mshr_miss_latency::.cpu.inst     46294000                       # number of ReadCleanReq MSHR miss cycles
system.l2.ReadCleanReq_mshr_miss_latency::total     46294000                       # number of ReadCleanReq MSHR miss cycles
system.l2.ReadCleanReq_mshr_miss_rate::.cpu.inst     0.894244                       # mshr miss rate for ReadCleanReq accesses
system.l2.ReadCleanReq_mshr_miss_rate::total     0.894244                       # mshr miss rate for ReadCleanReq accesses
system.l2.ReadCleanReq_avg_mshr_miss_latency::.cpu.inst 69302.395210                       # average ReadCleanReq mshr miss latency
system.l2.ReadCleanReq_avg_mshr_miss_latency::total 69302.395210                       # average ReadCleanReq mshr miss latency
system.l2.ReadSharedReq_hits::.cpu.data        466007                       # number of ReadSharedReq hits
system.l2.ReadSharedReq_hits::total            466007                       # number of ReadSharedReq hits
system.l2.ReadSharedReq_misses::.cpu.data        81251                       # number of ReadSharedReq misses
system.l2.ReadSharedReq_misses::total           81251                       # number of ReadSharedReq misses
system.l2.ReadSharedReq_miss_latency::.cpu.data   6607637000                       # number of ReadSharedReq miss cycles
system.l2.ReadSharedReq_miss_latency::total   6607637000                       # number of ReadSharedReq miss cycles
system.l2.ReadSharedReq_accesses::.cpu.data       547258                       # number of ReadSharedReq accesses(hits+misses)
system.l2.ReadSharedReq_accesses::total        547258                       # number of ReadSharedReq accesses(hits+misses)
system.l2.ReadSharedReq_miss_rate::.cpu.data     0.148469                       # miss rate for ReadSharedReq accesses
system.l2.ReadSharedReq_miss_rate::total     0.148469                       # miss rate for ReadSharedReq accesses
system.l2.ReadSharedReq_avg_miss_latency::.cpu.data 81323.762169                       # average ReadSharedReq miss latency
system.l2.ReadSharedReq_avg_miss_latency::total 81323.762169                       # average ReadSharedReq miss latency
system.l2.ReadSharedReq_mshr_hits::.cpu.data            4                       # number of ReadSharedReq MSHR hits
system.l2.ReadSharedReq_mshr_hits::total            4                       # number of ReadSharedReq MSHR hits
system.l2.ReadSharedReq_mshr_misses::.cpu.data        81247                       # number of ReadSharedReq MSHR misses
system.l2.ReadSharedReq_mshr_misses::total        81247                       # number of ReadSharedReq MSHR misses
system.l2.ReadSharedReq_mshr_miss_latency::.cpu.data   5794708000                       # number of ReadSharedReq MSHR miss cycles
system.l2.ReadSharedReq_mshr_miss_latency::total   5794708000                       # number of ReadSharedReq MSHR miss cycles
system.l2.ReadSharedReq_mshr_miss_rate::.cpu.data     0.148462                       # mshr miss rate for ReadSharedReq accesses
system.l2.ReadSharedReq_mshr_miss_rate::total     0.148462                       # mshr miss rate for ReadSharedReq accesses
system.l2.ReadSharedReq_avg_mshr_miss_latency::.cpu.data 71322.116509                       # average ReadSharedReq mshr miss latency
system.l2.ReadSharedReq_avg_mshr_miss_latency::total 71322.116509                       # average ReadSharedReq mshr miss latency
system.l2.tags.pwrStateResidencyTicks::UNDEFINED  87150179500                       # Cumulative time (in ticks) in various power states
system.l2.tags.tagsinuse                 16041.183415                       # Cycle average of tags in use
system.l2.tags.total_refs                     1737151                       # Total number of references to valid blocks.
system.l2.tags.sampled_refs                    227095                       # Sample count of references to valid blocks.
system.l2.tags.avg_refs                      7.649446                       # Average number of references to valid blocks.
system.l2.tags.warmup_cycle                     77000                       # Cycle when the warmup percentage was hit.
system.l2.tags.occ_blocks::.writebacks      26.463177                       # Average occupied blocks per requestor
system.l2.tags.occ_blocks::.cpu.inst        54.172215                       # Average occupied blocks per requestor
system.l2.tags.occ_blocks::.cpu.data     15960.548023                       # Average occupied blocks per requestor
system.l2.tags.occ_percent::.writebacks      0.001615                       # Average percentage of cache occupancy
system.l2.tags.occ_percent::.cpu.inst        0.003306                       # Average percentage of cache occupancy
system.l2.tags.occ_percent::.cpu.data        0.974155                       # Average percentage of cache occupancy
system.l2.tags.occ_percent::total            0.979076                       # Average percentage of cache occupancy
system.l2.tags.occ_task_id_blocks::1024         16384                       # Occupied blocks per task id
system.l2.tags.age_task_id_blocks_1024::0          117                       # Occupied blocks per task id
system.l2.tags.age_task_id_blocks_1024::1          167                       # Occupied blocks per task id
system.l2.tags.age_task_id_blocks_1024::2         2563                       # Occupied blocks per task id
system.l2.tags.age_task_id_blocks_1024::3        11176                       # Occupied blocks per task id
system.l2.tags.age_task_id_blocks_1024::4         2361                       # Occupied blocks per task id
system.l2.tags.occ_task_id_percent::1024            1                       # Percentage of cache occupancy per task id
system.l2.tags.tag_accesses                  14124335                       # Number of tag accesses
system.l2.tags.data_accesses                 14124335                       # Number of data accesses
system.cpu_voltage_domain.voltage                   1                       # Voltage in Volts
system.mem_ctrls.pwrStateResidencyTicks::UNDEFINED  87150179500                       # Cumulative time (in ticks) in various power states
system.mem_ctrls.bytes_read::.cpu.inst          42752                       # Number of bytes read from this memory
system.mem_ctrls.bytes_read::.cpu.data       14483584                       # Number of bytes read from this memory
system.mem_ctrls.bytes_read::total           14526336                       # Number of bytes read from this memory
system.mem_ctrls.bytes_inst_read::.cpu.inst        42752                       # Number of instructions bytes read from this memory
system.mem_ctrls.bytes_inst_read::total         42752                       # Number of instructions bytes read from this memory
system.mem_ctrls.bytes_written::.writebacks      8982464                       # Number of bytes written to this memory
system.mem_ctrls.bytes_written::total         8982464                       # Number of bytes written to this memory
system.mem_ctrls.num_reads::.cpu.inst             668                       # Number of read requests responded to by this memory
system.mem_ctrls.num_reads::.cpu.data          226306                       # Number of read requests responded to by this memory
system.mem_ctrls.num_reads::total              226974                       # Number of read requests responded to by this memory
system.mem_ctrls.num_writes::.writebacks       140351                       # Number of write requests responded to by this memory
system.mem_ctrls.num_writes::total             140351                       # Number of write requests responded to by this memory
system.mem_ctrls.bw_read::.cpu.inst            490556                       # Total read bandwidth from this memory (bytes/s)
system.mem_ctrls.bw_read::.cpu.data         166191098                       # Total read bandwidth from this memory (bytes/s)
system.mem_ctrls.bw_read::total             166681653                       # Total read bandwidth from this memory (bytes/s)
system.mem_ctrls.bw_inst_read::.cpu.inst       490556                       # Instruction read bandwidth from this memory (bytes/s)
system.mem_ctrls.bw_inst_read::total           490556                       # Instruction read bandwidth from this memory (bytes/s)
system.mem_ctrls.bw_write::.writebacks      103068795                       # Write bandwidth from this memory (bytes/s)
system.mem_ctrls.bw_write::total            103068795                       # Write bandwidth from this memory (bytes/s)
system.mem_ctrls.bw_total::.writebacks      103068795                       # Total bandwidth to/from this memory (bytes/s)
system.mem_ctrls.bw_total::.cpu.inst           490556                       # Total bandwidth to/from this memory (bytes/s)
system.mem_ctrls.bw_total::.cpu.data        166191098                       # Total bandwidth to/from this memory (bytes/s)
system.mem_ctrls.bw_total::total            269750448                       # Total bandwidth to/from this memory (bytes/s)
system.mem_ctrls.avgPriority_.writebacks::samples    140351.00                       # Average QoS priority value for accepted requests
system.mem_ctrls.avgPriority_.cpu.inst::samples       668.00                       # Average QoS priority value for accepted requests
system.mem_ctrls.avgPriority_.cpu.data::samples    226140.00                       # Average QoS priority value for accepted requests
system.mem_ctrls.priorityMinLatency      0.000000018750                       # per QoS priority minimum request to response latency (s)
system.mem_ctrls.priorityMaxLatency      0.008240354500                       # per QoS priority maximum request to response latency (s)
system.mem_ctrls.numReadWriteTurnArounds         8359                       # Number of turnarounds from READ to WRITE
system.mem_ctrls.numWriteReadTurnArounds         8359                       # Number of turnarounds from WRITE to READ
system.mem_ctrls.numStayReadState              604559                       # Number of times bus staying in READ state
system.mem_ctrls.numStayWriteState             132158                       # Number of times bus staying in WRITE state
system.mem_ctrls.readReqs                      226974                       # Number of read requests accepted
system.mem_ctrls.writeReqs                     140351                       # Number of write requests accepted
system.mem_ctrls.readBursts                    226974                       # Number of DRAM read bursts, including those serviced by the write queue
system.mem_ctrls.writeBursts                   140351                       # Number of DRAM write bursts, including those merged in the write queue
system.mem_ctrls.servicedByWrQ                    166                       # Number of DRAM read bursts serviced by the write queue
system.mem_ctrls.mergedWrBursts                     0                       # Number of DRAM write bursts merged with an existing one
system.mem_ctrls.neitherReadNorWriteReqs            0                       # Number of requests that are neither read nor write
system.mem_ctrls.perBankRdBursts::0             14526                       # Per bank write bursts
system.mem_ctrls.perBankRdBursts::1             14222                       # Per bank write bursts
system.mem_ctrls.perBankRdBursts::2             14430                       # Per bank write bursts
system.mem_ctrls.perBankRdBursts::3             14318                       # Per bank write bursts
system.mem_ctrls.perBankRdBursts::4             14459                       # Per bank write bursts
system.mem_ctrls.perBankRdBursts::5             14353                       # Per bank write bursts
system.mem_ctrls.perBankRdBursts::6             13797                       # Per bank write bursts
system.mem_ctrls.perBankRdBursts::7             14035                       # Per bank write bursts
system.mem_ctrls.perBankRdBursts::8             13950                       # Per bank write bursts
system.mem_ctrls.perBankRdBursts::9             14036                       # Per bank write bursts
system.mem_ctrls.perBankRdBursts::10            13896                       # Per bank write bursts
system.mem_ctrls.perBankRdBursts::11            13698                       # Per bank write bursts
system.mem_ctrls.perBankRdBursts::12            14200                       # Per bank write bursts
system.mem_ctrls.perBankRdBursts::13            14438                       # Per bank write bursts
system.mem_ctrls.perBankRdBursts::14            14139                       # Per bank write bursts
system.mem_ctrls.perBankRdBursts::15            14311                       # Per bank write bursts
system.mem_ctrls.perBankWrBursts::0              8904                       # Per bank write bursts
system.mem_ctrls.perBankWrBursts::1              8668                       # Per bank write bursts
system.mem_ctrls.perBankWrBursts::2              8872                       # Per bank write bursts
system.mem_ctrls.perBankWrBursts::3              8906                       # Per bank write bursts
system.mem_ctrls.perBankWrBursts::4              9194                       # Per bank write bursts
system.mem_ctrls.perBankWrBursts::5              9106                       # Per bank write bursts
system.mem_ctrls.perBankWrBursts::6              8513                       # Per bank write bursts
system.mem_ctrls.perBankWrBursts::7              8618                       # Per bank write bursts
system.mem_ctrls.perBankWrBursts::8              8521                       # Per bank write bursts
system.mem_ctrls.perBankWrBursts::9              8687                       # Per bank write bursts
system.mem_ctrls.perBankWrBursts::10             8609                       # Per bank write bursts
system.mem_ctrls.perBankWrBursts::11             8473                       # Per bank write bursts
system.mem_ctrls.perBankWrBursts::12             8778                       # Per bank write bursts
system.mem_ctrls.perBankWrBursts::13             8937                       # Per bank write bursts
system.mem_ctrls.perBankWrBursts::14             8690                       # Per bank write bursts
system.mem_ctrls.perBankWrBursts::15             8856                       # Per bank write bursts
system.mem_ctrls.avgRdQLen                       1.08                       # Average read queue length when enqueuing
system.mem_ctrls.avgWrQLen                      24.83                       # Average write queue length when enqueuing
system.mem_ctrls.totQLat                   3545092750                       # Total ticks spent queuing
system.mem_ctrls.totBusLat                 1134040000                       # Total ticks spent in databus transfers
system.mem_ctrls.totMemAccLat              7797742750                       # Total ticks spent from burst creation until serviced by the DRAM
system.mem_ctrls.avgQLat                     15630.37                       # Average queueing delay per DRAM burst
system.mem_ctrls.avgBusLat                    5000.00                       # Average bus latency per DRAM burst
system.mem_ctrls.avgMemAccLat                34380.37                       # Average memory access latency per DRAM burst
system.mem_ctrls.numRdRetry                         0                       # Number of times read queue was full causing retry
system.mem_ctrls.numWrRetry                         0                       # Number of times write queue was full causing retry
system.mem_ctrls.readRowHits                   143826                       # Number of row buffer hits during reads
system.mem_ctrls.writeRowHits                   84360                       # Number of row buffer hits during writes
system.mem_ctrls.readRowHitRate                 63.41                       # Row buffer hit rate for reads
system.mem_ctrls.writeRowHitRate                60.11                       # Row buffer hit rate for writes
system.mem_ctrls.readPktSize::0                     0                       # Read request sizes (log2)
system.mem_ctrls.readPktSize::1                     0                       # Read request sizes (log2)
system.mem_ctrls.readPktSize::2                     0                       # Read request sizes (log2)
system.mem_ctrls.readPktSize::3                     0                       # Read request sizes (log2)
system.mem_ctrls.readPktSize::4                     0                       # Read request sizes (log2)
system.mem_ctrls.readPktSize::5                     0                       # Read request sizes (log2)
system.mem_ctrls.readPktSize::6                226974                       # Read request sizes (log2)
system.mem_ctrls.writePktSize::0                    0                       # Write request sizes (log2)
system.mem_ctrls.writePktSize::1                    0                       # Write request sizes (log2)
system.mem_ctrls.writePktSize::2                    0                       # Write request sizes (log2)
system.mem_ctrls.writePktSize::3                    0                       # Write request sizes (log2)
system.mem_ctrls.writePktSize::4                    0                       # Write request sizes (log2)
system.mem_ctrls.writePktSize::5                    0                       # Write request sizes (log2)
system.mem_ctrls.writePktSize::6               140351                       # Write request sizes (log2)
system.mem_ctrls.rdQLenPdf::0                  163788                       # What read queue length does an incoming req see
system.mem_ctrls.rdQLenPdf::1                   60268                       # What read queue length does an incoming req see
system.mem_ctrls.rdQLenPdf::2                    2428                       # What read queue length does an incoming req see
system.mem_ctrls.rdQLenPdf::3                     323                       # What read queue length does an incoming req see
system.mem_ctrls.rdQLenPdf::4                       1                       # What read queue length does an incoming req see
system.mem_ctrls.rdQLenPdf::5                       0                       # What read queue length does an incoming req see
system.mem_ctrls.rdQLenPdf::6                       0                       # What read queue length does an incoming req see
system.mem_ctrls.rdQLenPdf::7                       0                       # What read queue length does an incoming req see
system.mem_ctrls.rdQLenPdf::8                       0                       # What read queue length does an incoming req see
system.mem_ctrls.rdQLenPdf::9                       0                       # What read queue length does an incoming req see
system.mem_ctrls.rdQLenPdf::10                      0                       # What read queue length does an incoming req see
system.mem_ctrls.rdQLenPdf::11                      0                       # What read queue length does an incoming req see
system.mem_ctrls.rdQLenPdf::12                      0                       # What read queue length does an incoming req see
system.mem_ctrls.rdQLenPdf::13                      0                       # What read queue length does an incoming req see
system.mem_ctrls.rdQLenPdf::14                      0                       # What read queue length does an incoming req see
system.mem_ctrls.rdQLenPdf::15                      0                       # What read queue length does an incoming req see
system.mem_ctrls.rdQLenPdf::16                      0                       # What read queue length does an incoming req see
system.mem_ctrls.rdQLenPdf::17                      0                       # What read queue length does an incoming req see
system.mem_ctrls.rdQLenPdf::18                      0                       # What read queue length does an incoming req see
system.mem_ctrls.rdQLenPdf::19                      0                       # What read queue length does an incoming req see
system.mem_ctrls.rdQLenPdf::20                      0                       # What read queue length does an incoming req see
system.mem_ctrls.rdQLenPdf::21                      0                       # What read queue length does an incoming req see
system.mem_ctrls.rdQLenPdf::22                      0                       # What read queue length does an incoming req see
system.mem_ctrls.rdQLenPdf::23                      0                       # What read queue length does an incoming req see
system.mem_ctrls.rdQLenPdf::24                      0                       # What read queue length does an incoming req see
system.mem_ctrls.rdQLenPdf::25                      0                       # What read queue length does an incoming req see
system.mem_ctrls.rdQLenPdf::26                      0                       # What read queue length does an incoming req see
system.mem_ctrls.rdQLenPdf::27                      0                       # What read queue length does an incoming req see
system.mem_ctrls.rdQLenPdf::28                      0                       # What read queue length does an incoming req see
system.mem_ctrls.rdQLenPdf::29                      0                       # What read queue length does an incoming req see
system.mem_ctrls.rdQLenPdf::30                      0                       # What read queue length does an incoming req see
system.mem_ctrls.rdQLenPdf::31                      0                       # What read queue length does an incoming req see
system.mem_ctrls.wrQLenPdf::0                       1                       # What write queue length does an incoming req see
system.mem_ctrls.wrQLenPdf::1                       1                       # What write queue length does an incoming req see
system.mem_ctrls.wrQLenPdf::2                       1                       # What write queue length does an incoming req see
system.mem_ctrls.wrQLenPdf::3                       1                       # What write queue length does an incoming req see
system.mem_ctrls.wrQLenPdf::4                       1                       # What write queue length does an incoming req see
system.mem_ctrls.wrQLenPdf::5                       1                       # What write queue length does an incoming req see
system.mem_ctrls.wrQLenPdf::6                       1                       # What write queue length does an incoming req see
system.mem_ctrls.wrQLenPdf::7                       1                       # What write queue length does an incoming req see
system.mem_ctrls.wrQLenPdf::8                       1                       # What write queue length does an incoming req see
system.mem_ctrls.wrQLenPdf::9                       1                       # What write queue length does an incoming req see
system.mem_ctrls.wrQLenPdf::10                      1                       # What write queue length does an incoming req see
system.mem_ctrls.wrQLenPdf::11                      1                       # What write queue length does an incoming req see
system.mem_ctrls.wrQLenPdf::12                      1                       # What write queue length does an incoming req see
system.mem_ctrls.wrQLenPdf::13                      1                       # What write queue length does an incoming req see
system.mem_ctrls.wrQLenPdf::14                      1                       # What write queue length does an incoming req see
system.mem_ctrls.wrQLenPdf::15                   3116                       # What write queue length does an incoming req see
system.mem_ctrls.wrQLenPdf::16                   3182                       # What write queue length does an incoming req see
system.mem_ctrls.wrQLenPdf::17                   7186                       # What write queue length does an incoming req see
system.mem_ctrls.wrQLenPdf::18                   8446                       # What write queue length does an incoming req see
system.mem_ctrls.wrQLenPdf::19                   8419                       # What write queue length does an incoming req see
system.mem_ctrls.wrQLenPdf::20                   8450                       # What write queue length does an incoming req see
system.mem_ctrls.wrQLenPdf::21                   8415                       # What write queue length does an incoming req see
system.mem_ctrls.wrQLenPdf::22                   8418                       # What write queue length does an incoming req see
system.mem_ctrls.wrQLenPdf::23                   8428                       # What write queue length does an incoming req see
system.mem_ctrls.wrQLenPdf::24                   8465                       # What write queue length does an incoming req see
system.mem_ctrls.wrQLenPdf::25                   8454                       # What write queue length does an incoming req see
system.mem_ctrls.wrQLenPdf::26                   8956                       # What write queue length does an incoming req see
system.mem_ctrls.wrQLenPdf::27                   8398                       # What write queue length does an incoming req see
system.mem_ctrls.wrQLenPdf::28                   8502                       # What write queue length does an incoming req see
system.mem_ctrls.wrQLenPdf::29                   8404                       # What write queue length does an incoming req see
system.mem_ctrls.wrQLenPdf::30                   8365                       # What write queue length does an incoming req see
system.mem_ctrls.wrQLenPdf::31                   8365                       # What write queue length does an incoming req see
system.mem_ctrls.wrQLenPdf::32                   8359                       # What write queue length does an incoming req see
system.mem_ctrls.wrQLenPdf::33                      7                       # What write queue length does an incoming req see
system.mem_ctrls.wrQLenPdf::34                      1                       # What write queue length does an incoming req see
system.mem_ctrls.wrQLenPdf::35                      0                       # What write queue length does an incoming req see
system.mem_ctrls.wrQLenPdf::36                      0                       # What write queue length does an incoming req see
system.mem_ctrls.wrQLenPdf::37                      0                       # What write queue length does an incoming req see
system.mem_ctrls.wrQLenPdf::38                      0                       # What write queue length does an incoming req see
system.mem_ctrls.wrQLenPdf::39                      0                       # What write queue length does an incoming req see
system.mem_ctrls.wrQLenPdf::40                      0                       # What write queue length does an incoming req see
system.mem_ctrls.wrQLenPdf::41                      0                       # What write queue length does an incoming req see
system.mem_ctrls.wrQLenPdf::42                      0                       # What write queue length does an incoming req see
system.mem_ctrls.wrQLenPdf::43                      0                       # What write queue length does an incoming req see
system.mem_ctrls.wrQLenPdf::44                      0                       # What write queue length does an incoming req see
system.mem_ctrls.wrQLenPdf::45                      0                       # What write queue length does an incoming req see
system.mem_ctrls.wrQLenPdf::46                      0                       # What write queue length does an incoming req see
system.mem_ctrls.wrQLenPdf::47                      0                       # What write queue length does an incoming req see
system.mem_ctrls.wrQLenPdf::48                      0                       # What write queue length does an incoming req see
system.mem_ctrls.wrQLenPdf::49                      0                       # What write queue length does an incoming req see
system.mem_ctrls.wrQLenPdf::50                      0                       # What write queue length does an incoming req see
system.mem_ctrls.wrQLenPdf::51                      0                       # What write queue length does an incoming req see
system.mem_ctrls.wrQLenPdf::52                      0                       # What write queue length does an incoming req see
system.mem_ctrls.wrQLenPdf::53                      0                       # What write queue length does an incoming req see
system.mem_ctrls.wrQLenPdf::54                      0                       # What write queue length does an incoming req see
system.mem_ctrls.wrQLenPdf::55                      0                       # What write queue length does an incoming req see
system.mem_ctrls.wrQLenPdf::56                      0                       # What write queue length does an incoming req see
system.mem_ctrls.wrQLenPdf::57                      0                       # What write queue length does an incoming req see
system.mem_ctrls.wrQLenPdf::58                      0                       # What write queue length does an incoming req see
system.mem_ctrls.wrQLenPdf::59                      0                       # What write queue length does an incoming req see
system.mem_ctrls.wrQLenPdf::60                      0                       # What write queue length does an incoming req see
system.mem_ctrls.wrQLenPdf::61                      0                       # What write queue length does an incoming req see
system.mem_ctrls.wrQLenPdf::62                      0                       # What write queue length does an incoming req see
system.mem_ctrls.wrQLenPdf::63                      0                       # What write queue length does an incoming req see
system.mem_ctrls.bytesPerActivate::samples       138944                       # Bytes accessed per row activation
system.mem_ctrls.bytesPerActivate::mean    169.105481                       # Bytes accessed per row activation
system.mem_ctrls.bytesPerActivate::gmean   102.576125                       # Bytes accessed per row activation
system.mem_ctrls.bytesPerActivate::stdev   236.180831                       # Bytes accessed per row activation
system.mem_ctrls.bytesPerActivate::0-127        96813     69.68%     69.68% # Bytes accessed per row activation
system.mem_ctrls.bytesPerActivate::128-255        18983     13.66%     83.34% # Bytes accessed per row activation
system.mem_ctrls.bytesPerActivate::256-383         3556      2.56%     85.90% # Bytes accessed per row activation
system.mem_ctrls.bytesPerActivate::384-511         1679      1.21%     87.11% # Bytes accessed per row activation
system.mem_ctrls.bytesPerActivate::512-639         9985      7.19%     94.29% # Bytes accessed per row activation
system.mem_ctrls.bytesPerActivate::640-767          619      0.45%     94.74% # Bytes accessed per row activation
system.mem_ctrls.bytesPerActivate::768-895          438      0.32%     95.05% # Bytes accessed per row activation
system.mem_ctrls.bytesPerActivate::896-1023          457      0.33%     95.38% # Bytes accessed per row activation
system.mem_ctrls.bytesPerActivate::1024-1151         6414      4.62%    100.00% # Bytes accessed per row activation
system.mem_ctrls.bytesPerActivate::total       138944                       # Bytes accessed per row activation
system.mem_ctrls.rdPerTurnAround::samples         8359                       # Reads before turning the bus around for writes
system.mem_ctrls.rdPerTurnAround::mean      27.133150                       # Reads before turning the bus around for writes
system.mem_ctrls.rdPerTurnAround::gmean     23.066921                       # Reads before turning the bus around for writes
system.mem_ctrls.rdPerTurnAround::stdev     49.878012                       # Reads before turning the bus around for writes
system.mem_ctrls.rdPerTurnAround::0-127          8259     98.80%     98.80% # Reads before turning the bus around for writes
system.mem_ctrls.rdPerTurnAround::128-255           26      0.31%     99.11% # Reads before turning the bus around for writes
system.mem_ctrls.rdPerTurnAround::256-383           63      0.75%     99.87% # Reads before turning the bus around for writes
system.mem_ctrls.rdPerTurnAround::384-511            4      0.05%     99.92% # Reads before turning the bus around for writes
system.mem_ctrls.rdPerTurnAround::512-639            2      0.02%     99.94% # Reads before turning the bus around for writes
system.mem_ctrls.rdPerTurnAround::640-767            1      0.01%     99.95% # Reads before turning the bus around for writes
system.mem_ctrls.rdPerTurnAround::896-1023            1      0.01%     99.96% # Reads before turning the bus around for writes
system.mem_ctrls.rdPerTurnAround::1280-1407            1      0.01%     99.98% # Reads before turning the bus around for writes
system.mem_ctrls.rdPerTurnAround::1408-1535            1      0.01%     99.99% # Reads before turning the bus around for writes
[...]
system.cpu.icache.ReadReq_avg_miss_latency::.cpu.inst 74554.886212                       # average ReadReq miss latency
system.cpu.icache.ReadReq_avg_miss_latency::total 74554.886212                       # average ReadReq miss latency
system.cpu.icache.ReadReq_mshr_misses::.cpu.inst          747                       # number of ReadReq MSHR misses
system.cpu.icache.ReadReq_mshr_misses::total          747                       # number of ReadReq MSHR misses
system.cpu.icache.ReadReq_mshr_miss_latency::.cpu.inst     54945500                       # number of ReadReq MSHR miss cycles
system.cpu.icache.ReadReq_mshr_miss_latency::total     54945500                       # number of ReadReq MSHR miss cycles
system.cpu.icache.ReadReq_mshr_miss_rate::.cpu.inst     0.000077                       # mshr miss rate for ReadReq accesses
system.cpu.icache.ReadReq_mshr_miss_rate::total     0.000077                       # mshr miss rate for ReadReq accesses
system.cpu.icache.ReadReq_avg_mshr_miss_latency::.cpu.inst 73554.886212                       # average ReadReq mshr miss latency
system.cpu.icache.ReadReq_avg_mshr_miss_latency::total 73554.886212                       # average ReadReq mshr miss latency
system.cpu.icache.tags.pwrStateResidencyTicks::UNDEFINED  87150179500                       # Cumulative time (in ticks) in various power states
system.cpu.icache.tags.tagsinuse           361.610122                       # Cycle average of tags in use
system.cpu.icache.tags.total_refs             9663800                       # Total number of references to valid blocks.
system.cpu.icache.tags.sampled_refs               747                       # Sample count of references to valid blocks.
system.cpu.icache.tags.avg_refs          12936.813922                       # Average number of references to valid blocks.
system.cpu.icache.tags.warmup_cycle             87500                       # Cycle when the warmup percentage was hit.
system.cpu.icache.tags.occ_blocks::.cpu.inst   361.610122                       # Average occupied blocks per requestor
system.cpu.icache.tags.occ_percent::.cpu.inst     0.706270                       # Average percentage of cache occupancy
system.cpu.icache.tags.occ_percent::total     0.706270                       # Average percentage of cache occupancy
system.cpu.icache.tags.occ_task_id_blocks::1024          445                       # Occupied blocks per task id
system.cpu.icache.tags.age_task_id_blocks_1024::3          106                       # Occupied blocks per task id
system.cpu.icache.tags.age_task_id_blocks_1024::4          339                       # Occupied blocks per task id
system.cpu.icache.tags.occ_task_id_percent::1024     0.869141                       # Percentage of cache occupancy per task id
system.cpu.icache.tags.tag_accesses          19328347                       # Number of tag accesses
system.cpu.icache.tags.data_accesses         19328347                       # Number of data accesses
system.cpu.dtb.walker.pwrStateResidencyTicks::UNDEFINED  87150179500                       # Cumulative time (in ticks) in various power states
system.cpu.dtb.stage2_mmu.stage2_tlb.walker.pwrStateResidencyTicks::UNDEFINED  87150179500                       # Cumulative time (in ticks) in various power states
system.cpu.dcache.pwrStateResidencyTicks::UNDEFINED  87150179500                       # Cumulative time (in ticks) in various power states
system.cpu.dcache.demand_hits::.cpu.data     51149296                       # number of demand (read+write) hits
system.cpu.dcache.demand_hits::total         51149296                       # number of demand (read+write) hits
system.cpu.dcache.overall_hits::.cpu.data     51149766                       # number of overall hits
system.cpu.dcache.overall_hits::total        51149766                       # number of overall hits
system.cpu.dcache.demand_misses::.cpu.data       922846                       # number of demand (read+write) misses
system.cpu.dcache.demand_misses::total         922846                       # number of demand (read+write) misses
system.cpu.dcache.overall_misses::.cpu.data       930794                       # number of overall misses
system.cpu.dcache.overall_misses::total        930794                       # number of overall misses
system.cpu.dcache.demand_miss_latency::.cpu.data  29447609994                       # number of demand (read+write) miss cycles
system.cpu.dcache.demand_miss_latency::total  29447609994                       # number of demand (read+write) miss cycles
system.cpu.dcache.overall_miss_latency::.cpu.data  29447609994                       # number of overall miss cycles
system.cpu.dcache.overall_miss_latency::total  29447609994                       # number of overall miss cycles
system.cpu.dcache.demand_accesses::.cpu.data     52072142                       # number of demand (read+write) accesses
system.cpu.dcache.demand_accesses::total     52072142                       # number of demand (read+write) accesses
system.cpu.dcache.overall_accesses::.cpu.data     52080560                       # number of overall (read+write) accesses
system.cpu.dcache.overall_accesses::total     52080560                       # number of overall (read+write) accesses
system.cpu.dcache.demand_miss_rate::.cpu.data     0.017722                       # miss rate for demand accesses
system.cpu.dcache.demand_miss_rate::total     0.017722                       # miss rate for demand accesses
system.cpu.dcache.overall_miss_rate::.cpu.data     0.017872                       # miss rate for overall accesses
system.cpu.dcache.overall_miss_rate::total     0.017872                       # miss rate for overall accesses
system.cpu.dcache.demand_avg_miss_latency::.cpu.data 31909.560202                       # average overall miss latency
system.cpu.dcache.demand_avg_miss_latency::total 31909.560202                       # average overall miss latency
system.cpu.dcache.overall_avg_miss_latency::.cpu.data 31637.086180                       # average overall miss latency
system.cpu.dcache.overall_avg_miss_latency::total 31637.086180                       # average overall miss latency
system.cpu.dcache.blocked_cycles::no_mshrs       196427                       # number of cycles access was blocked
system.cpu.dcache.blocked_cycles::no_targets            0                       # number of cycles access was blocked
system.cpu.dcache.blocked::no_mshrs              3733                       # number of cycles access was blocked
system.cpu.dcache.blocked::no_targets               0                       # number of cycles access was blocked
system.cpu.dcache.avg_blocked_cycles::no_mshrs    52.619073                       # average number of cycles each access was blocked
system.cpu.dcache.avg_blocked_cycles::no_targets          nan                       # average number of cycles each access was blocked
system.cpu.dcache.writebacks::.writebacks       776771                       # number of writebacks
system.cpu.dcache.writebacks::total            776771                       # number of writebacks
system.cpu.dcache.demand_mshr_hits::.cpu.data        61887                       # number of demand (read+write) MSHR hits
system.cpu.dcache.demand_mshr_hits::total        61887                       # number of demand (read+write) MSHR hits
system.cpu.dcache.overall_mshr_hits::.cpu.data        61887                       # number of overall MSHR hits
system.cpu.dcache.overall_mshr_hits::total        61887                       # number of overall MSHR hits
system.cpu.dcache.demand_mshr_misses::.cpu.data       860959                       # number of demand (read+write) MSHR misses
system.cpu.dcache.demand_mshr_misses::total       860959                       # number of demand (read+write) MSHR misses
system.cpu.dcache.overall_mshr_misses::.cpu.data       868902                       # number of overall MSHR misses
system.cpu.dcache.overall_mshr_misses::total       868902                       # number of overall MSHR misses
system.cpu.dcache.demand_mshr_miss_latency::.cpu.data  26931319995                       # number of demand (read+write) MSHR miss cycles
system.cpu.dcache.demand_mshr_miss_latency::total  26931319995                       # number of demand (read+write) MSHR miss cycles
system.cpu.dcache.overall_mshr_miss_latency::.cpu.data  27561308494                       # number of overall MSHR miss cycles
system.cpu.dcache.overall_mshr_miss_latency::total  27561308494                       # number of overall MSHR miss cycles
system.cpu.dcache.demand_mshr_miss_rate::.cpu.data     0.016534                       # mshr miss rate for demand accesses
system.cpu.dcache.demand_mshr_miss_rate::total     0.016534                       # mshr miss rate for demand accesses
system.cpu.dcache.overall_mshr_miss_rate::.cpu.data     0.016684                       # mshr miss rate for overall accesses
system.cpu.dcache.overall_mshr_miss_rate::total     0.016684                       # mshr miss rate for overall accesses
system.cpu.dcache.demand_avg_mshr_miss_latency::.cpu.data 31280.606852                       # average overall mshr miss latency
system.cpu.dcache.demand_avg_mshr_miss_latency::total 31280.606852                       # average overall mshr miss latency
system.cpu.dcache.overall_avg_mshr_miss_latency::.cpu.data 31719.697381                       # average overall mshr miss latency
system.cpu.dcache.overall_avg_mshr_miss_latency::total 31719.697381                       # average overall mshr miss latency
system.cpu.dcache.replacements                 867878                       # number of replacements
system.cpu.dcache.ReadReq_hits::.cpu.data     40580727                       # number of ReadReq hits
system.cpu.dcache.ReadReq_hits::total        40580727                       # number of ReadReq hits
system.cpu.dcache.ReadReq_misses::.cpu.data       541314                       # number of ReadReq misses
system.cpu.dcache.ReadReq_misses::total        541314                       # number of ReadReq misses
system.cpu.dcache.ReadReq_miss_latency::.cpu.data  12362270497                       # number of ReadReq miss cycles
system.cpu.dcache.ReadReq_miss_latency::total  12362270497                       # number of ReadReq miss cycles
system.cpu.dcache.ReadReq_accesses::.cpu.data     41122041                       # number of ReadReq accesses(hits+misses)
system.cpu.dcache.ReadReq_accesses::total     41122041                       # number of ReadReq accesses(hits+misses)
system.cpu.dcache.ReadReq_miss_rate::.cpu.data     0.013164                       # miss rate for ReadReq accesses
system.cpu.dcache.ReadReq_miss_rate::total     0.013164                       # miss rate for ReadReq accesses
system.cpu.dcache.ReadReq_avg_miss_latency::.cpu.data 22837.522209                       # average ReadReq miss latency
system.cpu.dcache.ReadReq_avg_miss_latency::total 22837.522209                       # average ReadReq miss latency
system.cpu.dcache.ReadReq_mshr_hits::.cpu.data         1912                       # number of ReadReq MSHR hits
system.cpu.dcache.ReadReq_mshr_hits::total         1912                       # number of ReadReq MSHR hits
system.cpu.dcache.ReadReq_mshr_misses::.cpu.data       539402                       # number of ReadReq MSHR misses
system.cpu.dcache.ReadReq_mshr_misses::total       539402                       # number of ReadReq MSHR misses
system.cpu.dcache.ReadReq_mshr_miss_latency::.cpu.data  11774424997                       # number of ReadReq MSHR miss cycles
system.cpu.dcache.ReadReq_mshr_miss_latency::total  11774424997                       # number of ReadReq MSHR miss cycles
system.cpu.dcache.ReadReq_mshr_miss_rate::.cpu.data     0.013117                       # mshr miss rate for ReadReq accesses
system.cpu.dcache.ReadReq_mshr_miss_rate::total     0.013117                       # mshr miss rate for ReadReq accesses
system.cpu.dcache.ReadReq_avg_mshr_miss_latency::.cpu.data 21828.663959                       # average ReadReq mshr miss latency
system.cpu.dcache.ReadReq_avg_mshr_miss_latency::total 21828.663959                       # average ReadReq mshr miss latency
system.cpu.dcache.WriteReq_hits::.cpu.data     10568569                       # number of WriteReq hits
system.cpu.dcache.WriteReq_hits::total       10568569                       # number of WriteReq hits
system.cpu.dcache.WriteReq_misses::.cpu.data       381532                       # number of WriteReq misses
system.cpu.dcache.WriteReq_misses::total       381532                       # number of WriteReq misses
system.cpu.dcache.WriteReq_miss_latency::.cpu.data  17085339497                       # number of WriteReq miss cycles
system.cpu.dcache.WriteReq_miss_latency::total  17085339497                       # number of WriteReq miss cycles
system.cpu.dcache.WriteReq_accesses::.cpu.data     10950101                       # number of WriteReq accesses(hits+misses)
system.cpu.dcache.WriteReq_accesses::total     10950101                       # number of WriteReq accesses(hits+misses)
system.cpu.dcache.WriteReq_miss_rate::.cpu.data     0.034843                       # miss rate for WriteReq accesses
system.cpu.dcache.WriteReq_miss_rate::total     0.034843                       # miss rate for WriteReq accesses
system.cpu.dcache.WriteReq_avg_miss_latency::.cpu.data 44780.882068                       # average WriteReq miss latency
system.cpu.dcache.WriteReq_avg_miss_latency::total 44780.882068                       # average WriteReq miss latency
system.cpu.dcache.WriteReq_mshr_hits::.cpu.data        59975                       # number of WriteReq MSHR hits
system.cpu.dcache.WriteReq_mshr_hits::total        59975                       # number of WriteReq MSHR hits
system.cpu.dcache.WriteReq_mshr_misses::.cpu.data       321557                       # number of WriteReq MSHR misses
system.cpu.dcache.WriteReq_mshr_misses::total       321557                       # number of WriteReq MSHR misses
system.cpu.dcache.WriteReq_mshr_miss_latency::.cpu.data  15156894998                       # number of WriteReq MSHR miss cycles
system.cpu.dcache.WriteReq_mshr_miss_latency::total  15156894998                       # number of WriteReq MSHR miss cycles
system.cpu.dcache.WriteReq_mshr_miss_rate::.cpu.data     0.029366                       # mshr miss rate for WriteReq accesses
system.cpu.dcache.WriteReq_mshr_miss_rate::total     0.029366                       # mshr miss rate for WriteReq accesses
system.cpu.dcache.WriteReq_avg_mshr_miss_latency::.cpu.data 47135.951007                       # average WriteReq mshr miss latency
system.cpu.dcache.WriteReq_avg_mshr_miss_latency::total 47135.951007                       # average WriteReq mshr miss latency
system.cpu.dcache.SoftPFReq_hits::.cpu.data          470                       # number of SoftPFReq hits
system.cpu.dcache.SoftPFReq_hits::total           470                       # number of SoftPFReq hits
system.cpu.dcache.SoftPFReq_misses::.cpu.data         7948                       # number of SoftPFReq misses
system.cpu.dcache.SoftPFReq_misses::total         7948                       # number of SoftPFReq misses
system.cpu.dcache.SoftPFReq_accesses::.cpu.data         8418                       # number of SoftPFReq accesses(hits+misses)
system.cpu.dcache.SoftPFReq_accesses::total         8418                       # number of SoftPFReq accesses(hits+misses)
system.cpu.dcache.SoftPFReq_miss_rate::.cpu.data     0.944167                       # miss rate for SoftPFReq accesses
system.cpu.dcache.SoftPFReq_miss_rate::total     0.944167                       # miss rate for SoftPFReq accesses
system.cpu.dcache.SoftPFReq_mshr_misses::.cpu.data         7943                       # number of SoftPFReq MSHR misses
system.cpu.dcache.SoftPFReq_mshr_misses::total         7943                       # number of SoftPFReq MSHR misses
system.cpu.dcache.SoftPFReq_mshr_miss_latency::.cpu.data    629988499                       # number of SoftPFReq MSHR miss cycles
system.cpu.dcache.SoftPFReq_mshr_miss_latency::total    629988499                       # number of SoftPFReq MSHR miss cycles
system.cpu.dcache.SoftPFReq_mshr_miss_rate::.cpu.data     0.943573                       # mshr miss rate for SoftPFReq accesses
system.cpu.dcache.SoftPFReq_mshr_miss_rate::total     0.943573                       # mshr miss rate for SoftPFReq accesses
system.cpu.dcache.SoftPFReq_avg_mshr_miss_latency::.cpu.data 79313.672290                       # average SoftPFReq mshr miss latency
system.cpu.dcache.SoftPFReq_avg_mshr_miss_latency::total 79313.672290                       # average SoftPFReq mshr miss latency
system.cpu.dcache.LoadLockedReq_hits::.cpu.data           38                       # number of LoadLockedReq hits
system.cpu.dcache.LoadLockedReq_hits::total           38                       # number of LoadLockedReq hits
system.cpu.dcache.LoadLockedReq_accesses::.cpu.data           38                       # number of LoadLockedReq accesses(hits+misses)
system.cpu.dcache.LoadLockedReq_accesses::total           38                       # number of LoadLockedReq accesses(hits+misses)
system.cpu.dcache.StoreCondReq_hits::.cpu.data           38                       # number of StoreCondReq hits
system.cpu.dcache.StoreCondReq_hits::total           38                       # number of StoreCondReq hits
system.cpu.dcache.StoreCondReq_accesses::.cpu.data           38                       # number of StoreCondReq accesses(hits+misses)
system.cpu.dcache.StoreCondReq_accesses::total           38                       # number of StoreCondReq accesses(hits+misses)
system.cpu.dcache.tags.pwrStateResidencyTicks::UNDEFINED  87150179500                       # Cumulative time (in ticks) in various power states
system.cpu.dcache.tags.tagsinuse          1008.537910                       # Cycle average of tags in use
system.cpu.dcache.tags.total_refs            52018744                       # Total number of references to valid blocks.
system.cpu.dcache.tags.sampled_refs            868902                       # Sample count of references to valid blocks.
system.cpu.dcache.tags.avg_refs             59.867216                       # Average number of references to valid blocks.
system.cpu.dcache.tags.warmup_cycle            176500                       # Cycle when the warmup percentage was hit.
system.cpu.dcache.tags.occ_blocks::.cpu.data  1008.537910                       # Average occupied blocks per requestor
system.cpu.dcache.tags.occ_percent::.cpu.data     0.984900                       # Average percentage of cache occupancy
system.cpu.dcache.tags.occ_percent::total     0.984900                       # Average percentage of cache occupancy
system.cpu.dcache.tags.occ_task_id_blocks::1024         1024                       # Occupied blocks per task id
system.cpu.dcache.tags.age_task_id_blocks_1024::0          181                       # Occupied blocks per task id
system.cpu.dcache.tags.age_task_id_blocks_1024::1          301                       # Occupied blocks per task id
system.cpu.dcache.tags.age_task_id_blocks_1024::2          542                       # Occupied blocks per task id
system.cpu.dcache.tags.occ_task_id_percent::1024            1                       # Percentage of cache occupancy per task id
system.cpu.dcache.tags.tag_accesses          52949538                       # Number of tag accesses
system.cpu.dcache.tags.data_accesses         52949538                       # Number of data accesses
system.cpu.itb.walker.pwrStateResidencyTicks::UNDEFINED  87150179500                       # Cumulative time (in ticks) in various power states
system.cpu.itb.stage2_mmu.stage2_tlb.walker.pwrStateResidencyTicks::UNDEFINED  87150179500                       # Cumulative time (in ticks) in various power states

---------- End Simulation Statistics   ----------
