
---------- Begin Simulation Statistics ----------
final_tick                                  478673000                       # Number of ticks from beginning of simulation (restored from checkpoints and never reset)
host_inst_rate                                1514278                       # Simulator instruction rate (inst/s)
host_mem_usage                                 674148                       # Number of bytes of host memory used
host_op_rate                                  1758028                       # Simulator op (including micro ops) rate (op/s)
host_seconds                                     0.20                       # Real time elapsed on the host
host_tick_rate                             2445180902                       # Simulator tick rate (ticks/s)
sim_freq                                 1000000000000                       # Frequency of simulated ticks
sim_insts                                      296278                       # Number of instructions simulated
sim_ops                                        344135                       # Number of ops (including micro ops) simulated
sim_seconds                                  0.000479                       # Number of seconds simulated
sim_ticks                                   478673000                       # Number of ticks simulated
system.cpu.Branches                             58540                       # Number of branches fetched
system.cpu.committedInsts                      296278                       # Number of instructions committed
system.cpu.committedOps                        344135                       # Number of ops (including micro ops) committed
system.cpu.dtb.accesses                             0                       # DTB accesses
system.cpu.dtb.align_faults                         0                       # Number of TLB faults due to alignment restrictions
system.cpu.dtb.domain_faults                        0                       # Number of TLB faults due to domain restrictions
system.cpu.dtb.flush_entries                        0                       # Number of entries that have been flushed from TLB
system.cpu.dtb.flush_tlb                            0                       # Number of times complete TLB was flushed
system.cpu.dtb.flush_tlb_asid                       0                       # Number of times TLB was flushed by ASID
system.cpu.dtb.flush_tlb_mva                        0                       # Number of times TLB was flushed by MVA
system.cpu.dtb.flush_tlb_mva_asid                   0                       # Number of times TLB was flushed by MVA & ASID
system.cpu.dtb.hits                                 0                       # DTB hits
system.cpu.dtb.inst_accesses                        0                       # ITB inst accesses
system.cpu.dtb.inst_hits                            0                       # ITB inst hits
system.cpu.dtb.inst_misses                          0                       # ITB inst misses
system.cpu.dtb.misses                               0                       # DTB misses
system.cpu.dtb.perms_faults                         0                       # Number of TLB faults due to permissions restrictions
system.cpu.dtb.prefetch_faults                      0                       # Number of TLB faults due to prefetch
system.cpu.dtb.read_accesses                        0                       # DTB read accesses
system.cpu.dtb.read_hits                            0                       # DTB read hits
system.cpu.dtb.read_misses                          0                       # DTB read misses
system.cpu.dtb.stage2_mmu.stage2_tlb.accesses            0                       # DTB accesses
system.cpu.dtb.stage2_mmu.stage2_tlb.align_faults            0                       # Number of TLB faults due to alignment restrictions
system.cpu.dtb.stage2_mmu.stage2_tlb.domain_faults            0                       # Number of TLB faults due to domain restrictions
system.cpu.dtb.stage2_mmu.stage2_tlb.flush_entries            0                       # Number of entries that have been flushed from TLB
system.cpu.dtb.stage2_mmu.stage2_tlb.flush_tlb            0                       # Number of times complete TLB was flushed
system.cpu.dtb.stage2_mmu.stage2_tlb.flush_tlb_asid            0                       # Number of times TLB was flushed by ASID
system.cpu.dtb.stage2_mmu.stage2_tlb.flush_tlb_mva            0                       # Number of times TLB was flushed by MVA
system.cpu.dtb.stage2_mmu.stage2_tlb.flush_tlb_mva_asid            0                       # Number of times TLB was flushed by MVA & ASID
system.cpu.dtb.stage2_mmu.stage2_tlb.hits            0                       # DTB hits
system.cpu.dtb.stage2_mmu.stage2_tlb.inst_accesses            0                       # ITB inst accesses
system.cpu.dtb.stage2_mmu.stage2_tlb.inst_hits            0                       # ITB inst hits
system.cpu.dtb.stage2_mmu.stage2_tlb.inst_misses            0                       # ITB inst misses
system.cpu.dtb.stage2_mmu.stage2_tlb.misses            0                       # DTB misses
system.cpu.dtb.stage2_mmu.stage2_tlb.perms_faults            0                       # Number of TLB faults due to permissions restrictions
system.cpu.dtb.stage2_mmu.stage2_tlb.prefetch_faults            0                       # Number of TLB faults due to prefetch
system.cpu.dtb.stage2_mmu.stage2_tlb.read_accesses            0                       # DTB read accesses
system.cpu.dtb.stage2_mmu.stage2_tlb.read_hits            0                       # DTB read hits
system.cpu.dtb.stage2_mmu.stage2_tlb.read_misses            0                       # DTB read misses
system.cpu.dtb.stage2_mmu.stage2_tlb.walker.walkRequestOrigin_Requested::Data            0                       # Table walker requests started/completed, data/inst
system.cpu.dtb.stage2_mmu.stage2_tlb.walker.walkRequestOrigin_Requested::Inst            0                       # Table walker requests started/completed, data/inst
system.cpu.dtb.stage2_mmu.stage2_tlb.walker.walkRequestOrigin_Requested::total            0                       # Table walker requests started/completed, data/inst
system.cpu.dtb.stage2_mmu.stage2_tlb.walker.walkRequestOrigin_Completed::Data            0                       # Table walker requests started/completed, data/inst
system.cpu.dtb.stage2_mmu.stage2_tlb.walker.walkRequestOrigin_Completed::Inst            0                       # Table walker requests started/completed, data/inst
system.cpu.dtb.stage2_mmu.stage2_tlb.walker.walkRequestOrigin_Completed::total            0                       # Table walker requests started/completed, data/inst
system.cpu.dtb.stage2_mmu.stage2_tlb.walker.walkRequestOrigin::total            0                       # Table walker requests started/completed, data/inst
system.cpu.dtb.stage2_mmu.stage2_tlb.walker.walks            0                       # Table walker walks requested
system.cpu.dtb.stage2_mmu.stage2_tlb.write_accesses            0                       # DTB write accesses
system.cpu.dtb.stage2_mmu.stage2_tlb.write_hits            0                       # DTB write hits
system.cpu.dtb.stage2_mmu.stage2_tlb.write_misses            0                       # DTB write misses
system.cpu.dtb.walker.walkRequestOrigin_Requested::Data            0                       # Table walker requests started/completed, data/inst
system.cpu.dtb.walker.walkRequestOrigin_Requested::Inst            0                       # Table walker requests started/completed, data/inst
system.cpu.dtb.walker.walkRequestOrigin_Requested::total            0                       # Table walker requests started/completed, data/inst
system.cpu.dtb.walker.walkRequestOrigin_Completed::Data            0                       # Table walker requests started/completed, data/inst
system.cpu.dtb.walker.walkRequestOrigin_Completed::Inst            0                       # Table walker requests started/completed, data/inst
system.cpu.dtb.walker.walkRequestOrigin_Completed::total            0                       # Table walker requests started/completed, data/inst
system.cpu.dtb.walker.walkRequestOrigin::total            0                       # Table walker requests started/completed, data/inst
system.cpu.dtb.walker.walks                         0                       # Table walker walks requested
system.cpu.dtb.write_accesses                       0                       # DTB write accesses
system.cpu.dtb.write_hits                           0                       # DTB write hits
system.cpu.dtb.write_misses                         0                       # DTB write misses
system.cpu.idle_fraction                     0.000000                       # Percentage of idle cycles
system.cpu.itb.accesses                             0                       # DTB accesses
system.cpu.itb.align_faults                         0                       # Number of TLB faults due to alignment restrictions
system.cpu.itb.domain_faults                        0                       # Number of TLB faults due to domain restrictions
system.cpu.itb.flush_entries                        0                       # Number of entries that have been flushed from TLB
system.cpu.itb.flush_tlb                            0                       # Number of times complete TLB was flushed
system.cpu.itb.flush_tlb_asid                       0                       # Number of times TLB was flushed by ASID
system.cpu.itb.flush_tlb_mva                        0                       # Number of times TLB was flushed by MVA
system.cpu.itb.flush_tlb_mva_asid                   0                       # Number of times TLB was flushed by MVA & ASID
system.cpu.itb.hits                                 0                       # DTB hits
system.cpu.itb.inst_accesses                        0                       # ITB inst accesses
system.cpu.itb.inst_hits                            0                       # ITB inst hits
system.cpu.itb.inst_misses                          0                       # ITB inst misses
system.cpu.itb.misses                               0                       # DTB misses
system.cpu.itb.perms_faults                         0                       # Number of TLB faults due to permissions restrictions
system.cpu.itb.prefetch_faults                      0                       # Number of TLB faults due to prefetch
system.cpu.itb.read_accesses                        0                       # DTB read accesses
system.cpu.itb.read_hits                            0                       # DTB read hits
system.cpu.itb.read_misses                          0                       # DTB read misses
system.cpu.itb.stage2_mmu.stage2_tlb.accesses            0                       # DTB accesses
system.cpu.itb.stage2_mmu.stage2_tlb.align_faults            0                       # Number of TLB faults due to alignment restrictions
system.cpu.itb.stage2_mmu.stage2_tlb.domain_faults            0                       # Number of TLB faults due to domain restrictions
system.cpu.itb.stage2_mmu.stage2_tlb.flush_entries            0                       # Number of entries that have been flushed from TLB
system.cpu.itb.stage2_mmu.stage2_tlb.flush_tlb            0                       # Number of times complete TLB was flushed
system.cpu.itb.stage2_mmu.stage2_tlb.flush_tlb_asid            0                       # Number of times TLB was flushed by ASID
system.cpu.itb.stage2_mmu.stage2_tlb.flush_tlb_mva            0                       # Number of times TLB was flushed by MVA
system.cpu.itb.stage2_mmu.stage2_tlb.flush_tlb_mva_asid            0                       # Number of times TLB was flushed by MVA & ASID
system.cpu.itb.stage2_mmu.stage2_tlb.hits            0                       # DTB hits
system.cpu.itb.stage2_mmu.stage2_tlb.inst_accesses            0                       # ITB inst accesses
system.cpu.itb.stage2_mmu.stage2_tlb.inst_hits            0                       # ITB inst hits
system.cpu.itb.stage2_mmu.stage2_tlb.inst_misses            0                       # ITB inst misses
system.cpu.itb.stage2_mmu.stage2_tlb.misses            0                       # DTB misses
system.cpu.itb.stage2_mmu.stage2_tlb.perms_faults            0                       # Number of TLB faults due to permissions restrictions
system.cpu.itb.stage2_mmu.stage2_tlb.prefetch_faults            0                       # Number of TLB faults due to prefetch
system.cpu.itb.stage2_mmu.stage2_tlb.read_accesses            0                       # DTB read accesses
system.cpu.itb.stage2_mmu.stage2_tlb.read_hits            0                       # DTB read hits
system.cpu.itb.stage2_mmu.stage2_tlb.read_misses            0                       # DTB read misses
system.cpu.itb.stage2_mmu.stage2_tlb.walker.walkRequestOrigin_Requested::Data            0                       # Table walker requests started/completed, data/inst
system.cpu.itb.stage2_mmu.stage2_tlb.walker.walkRequestOrigin_Requested::Inst            0                       # Table walker requests started/completed, data/inst
system.cpu.itb.stage2_mmu.stage2_tlb.walker.walkRequestOrigin_Requested::total            0                       # Table walker requests started/completed, data/inst
system.cpu.itb.stage2_mmu.stage2_tlb.walker.walkRequestOrigin_Completed::Data            0                       # Table walker requests started/completed, data/inst
system.cpu.itb.stage2_mmu.stage2_tlb.walker.walkRequestOrigin_Completed::Inst            0                       # Table walker requests started/completed, data/inst
system.cpu.itb.stage2_mmu.stage2_tlb.walker.walkRequestOrigin_Completed::total            0                       # Table walker requests started/completed, data/inst
system.cpu.itb.stage2_mmu.stage2_tlb.walker.walkRequestOrigin::total            0                       # Table walker requests started/completed, data/inst
system.cpu.itb.stage2_mmu.stage2_tlb.walker.walks            0                       # Table walker walks requested
system.cpu.itb.stage2_mmu.stage2_tlb.write_accesses            0                       # DTB write accesses
system.cpu.itb.stage2_mmu.stage2_tlb.write_hits            0                       # DTB write hits
system.cpu.itb.stage2_mmu.stage2_tlb.write_misses            0                       # DTB write misses
system.cpu.itb.walker.walkRequestOrigin_Requested::Data            0                       # Table walker requests started/completed, data/inst
system.cpu.itb.walker.walkRequestOrigin_Requested::Inst            0                       # Table walker requests started/completed, data/inst
system.cpu.itb.walker.walkRequestOrigin_Requested::total            0                       # Table walker requests started/completed, data/inst
system.cpu.itb.walker.walkRequestOrigin_Completed::Data            0                       # Table walker requests started/completed, data/inst
system.cpu.itb.walker.walkRequestOrigin_Completed::Inst            0                       # Table walker requests started/completed, data/inst
system.cpu.itb.walker.walkRequestOrigin_Completed::total            0                       # Table walker requests started/completed, data/inst
system.cpu.itb.walker.walkRequestOrigin::total            0                       # Table walker requests started/completed, data/inst
system.cpu.itb.walker.walks                         0                       # Table walker walks requested
system.cpu.itb.write_accesses                       0                       # DTB write accesses
system.cpu.itb.write_hits                           0                       # DTB write hits
system.cpu.itb.write_misses                         0                       # DTB write misses
system.cpu.not_idle_fraction                 1.000000                       # Percentage of non-idle cycles
system.cpu.numCycles                           957346                       # number of cpu cycles simulated
system.cpu.numWorkItemsCompleted                    0                       # number of work items this cpu completed
system.cpu.numWorkItemsStarted                      0                       # number of work items this cpu started
system.cpu.num_busy_cycles               957345.998000                       # Number of busy cycles
system.cpu.num_cc_register_reads              1218015                       # number of times the CC registers were read
system.cpu.num_cc_register_writes              171266                       # number of times the CC registers were written
system.cpu.num_conditional_control_insts        39490                       # number of instructions that are conditional controls
system.cpu.num_fp_alu_accesses                      0                       # Number of float alu accesses
system.cpu.num_fp_insts                             0                       # number of float instructions
system.cpu.num_fp_register_reads                    0                       # number of times the floating registers were read
system.cpu.num_fp_register_writes                   0                       # number of times the floating registers were written
system.cpu.num_func_calls                       12244                       # number of times a function call or return occured
system.cpu.num_idle_cycles                   0.002000                       # Number of idle cycles
system.cpu.num_int_alu_accesses                300065                       # Number of integer alu accesses
system.cpu.num_int_insts                       300065                       # number of integer instructions
system.cpu.num_int_register_reads              476184                       # number of times the integer registers were read
system.cpu.num_int_register_writes             213018                       # number of times the integer registers were written
system.cpu.num_load_insts                       61878                       # Number of load instructions
system.cpu.num_mem_refs                        111431                       # number of memory refs
system.cpu.num_store_insts                      49553                       # Number of store instructions
system.cpu.num_vec_alu_accesses                     0                       # Number of vector alu accesses
system.cpu.num_vec_insts                            0                       # number of vector instructions
system.cpu.num_vec_register_reads                  42                       # number of times the vector registers were read
system.cpu.num_vec_register_writes                 15                       # number of times the vector registers were written
system.cpu.op_class::No_OpClass                     0      0.00%      0.00% # Class of executed instruction
system.cpu.op_class::IntAlu                    234694     67.45%     67.45% # Class of executed instruction
system.cpu.op_class::IntMult                     1820      0.52%     67.97% # Class of executed instruction
system.cpu.op_class::IntDiv                         0      0.00%     67.97% # Class of executed instruction
system.cpu.op_class::FloatAdd                       0      0.00%     67.97% # Class of executed instruction
system.cpu.op_class::FloatCmp                       0      0.00%     67.97% # Class of executed instruction
system.cpu.op_class::FloatCvt                       0      0.00%     67.97% # Class of executed instruction
system.cpu.op_class::FloatMult                      0      0.00%     67.97% # Class of executed instruction
system.cpu.op_class::FloatMultAcc                   0      0.00%     67.97% # Class of executed instruction
system.cpu.op_class::FloatDiv                       0      0.00%     67.97% # Class of executed instruction
system.cpu.op_class::FloatMisc                      0      0.00%     67.97% # Class of executed instruction
system.cpu.op_class::FloatSqrt                      0      0.00%     67.97% # Class of executed instruction
system.cpu.op_class::SimdAdd                        0      0.00%     67.97% # Class of executed instruction
system.cpu.op_class::SimdAddAcc                     0      0.00%     67.97% # Class of executed instruction
system.cpu.op_class::SimdAlu                        0      0.00%     67.97% # Class of executed instruction
system.cpu.op_class::SimdCmp                        0      0.00%     67.97% # Class of executed instruction
system.cpu.op_class::SimdCvt                        0      0.00%     67.97% # Class of executed instruction
system.cpu.op_class::SimdMisc                       0      0.00%     67.97% # Class of executed instruction
system.cpu.op_class::SimdMult                       0      0.00%     67.97% # Class of executed instruction
system.cpu.op_class::SimdMultAcc                    0      0.00%     67.97% # Class of executed instruction
system.cpu.op_class::SimdShift                      0      0.00%     67.97% # Class of executed instruction
system.cpu.op_class::SimdShiftAcc                   0      0.00%     67.97% # Class of executed instruction
system.cpu.op_class::SimdDiv                        0      0.00%     67.97% # Class of executed instruction
system.cpu.op_class::SimdSqrt                       0      0.00%     67.97% # Class of executed instruction
system.cpu.op_class::SimdFloatAdd                   0      0.00%     67.97% # Class of executed instruction
system.cpu.op_class::SimdFloatAlu                   0      0.00%     67.97% # Class of executed instruction
system.cpu.op_class::SimdFloatCmp                   0      0.00%     67.97% # Class of executed instruction
system.cpu.op_class::SimdFloatCvt                   0      0.00%     67.97% # Class of executed instruction
system.cpu.op_class::SimdFloatDiv                   0      0.00%     67.97% # Class of executed instruction
system.cpu.op_class::SimdFloatMisc                 21      0.01%     67.98% # Class of executed instruction
system.cpu.op_class::SimdFloatMult                  0      0.00%     67.98% # Class of executed instruction
system.cpu.op_class::SimdFloatMultAcc               0      0.00%     67.98% # Class of executed instruction
system.cpu.op_class::SimdFloatSqrt                  0      0.00%     67.98% # Class of executed instruction
system.cpu.op_class::SimdReduceAdd                  0      0.00%     67.98% # Class of executed instruction
system.cpu.op_class::SimdReduceAlu                  0      0.00%     67.98% # Class of executed instruction
system.cpu.op_class::SimdReduceCmp                  0      0.00%     67.98% # Class of executed instruction
system.cpu.op_class::SimdFloatReduceAdd             0      0.00%     67.98% # Class of executed instruction
system.cpu.op_class::SimdFloatReduceCmp             0      0.00%     67.98% # Class of executed instruction
system.cpu.op_class::SimdAes                        0      0.00%     67.98% # Class of executed instruction
system.cpu.op_class::SimdAesMix                     0      0.00%     67.98% # Class of executed instruction
system.cpu.op_class::SimdSha1Hash                   0      0.00%     67.98% # Class of executed instruction
system.cpu.op_class::SimdSha1Hash2                  0      0.00%     67.98% # Class of executed instruction
system.cpu.op_class::SimdSha256Hash                 0      0.00%     67.98% # Class of executed instruction
system.cpu.op_class::SimdSha256Hash2                0      0.00%     67.98% # Class of executed instruction
system.cpu.op_class::SimdShaSigma2                  0      0.00%     67.98% # Class of executed instruction
system.cpu.op_class::SimdShaSigma3                  0      0.00%     67.98% # Class of executed instruction
system.cpu.op_class::SimdPredAlu                    0      0.00%     67.98% # Class of executed instruction
system.cpu.op_class::MemRead                    61878     17.78%     85.76% # Class of executed instruction
system.cpu.op_class::MemWrite                   49553     14.24%    100.00% # Class of executed instruction
system.cpu.op_class::FloatMemRead                   0      0.00%    100.00% # Class of executed instruction
system.cpu.op_class::FloatMemWrite                  0      0.00%    100.00% # Class of executed instruction
system.cpu.op_class::IprAccess                      0      0.00%    100.00% # Class of executed instruction
system.cpu.op_class::InstPrefetch                   0      0.00%    100.00% # Class of executed instruction
system.cpu.op_class::total                     347966                       # Class of executed instruction
system.cpu.workload.numSyscalls                    47                       # Number of system calls
system.membus.snoop_filter.hit_multi_requests            2                       # Number of requests hitting in the snoop filter with multiple (>1) holders of the requested data.
system.membus.snoop_filter.hit_multi_snoops            0                       # Number of snoops hitting in the snoop filter with multiple (>1) holders of the requested data.
system.membus.snoop_filter.hit_single_requests           83                       # Number of requests hitting in the snoop filter with a single holder of the requested data.
system.membus.snoop_filter.hit_single_snoops            0                       # Number of snoops hitting in the snoop filter with a single holder of the requested data.
system.membus.snoop_filter.tot_requests           619                       # Total number of requests made to the snoop filter.
system.membus.snoop_filter.tot_snoops               0                       # Total number of snoops made to the snoop filter.
system.membus.pwrStateResidencyTicks::UNDEFINED    478673000                       # Cumulative time (in ticks) in various power states
system.membus.trans_dist::ReadResp                450                       # Transaction distribution
system.membus.trans_dist::WritebackClean           69                       # Transaction distribution
system.membus.trans_dist::CleanEvict                2                       # Transaction distribution
system.membus.trans_dist::ReadExReq                98                       # Transaction distribution
system.membus.trans_dist::ReadExResp               98                       # Transaction distribution
system.membus.trans_dist::ReadCleanReq            345                       # Transaction distribution
system.membus.trans_dist::ReadSharedReq           105                       # Transaction distribution
system.membus.pkt_count_system.cpu.icache.mem_side::system.mem_ctrls.port          759                       # Packet count per connected master and slave (bytes)
system.membus.pkt_count_system.cpu.dcache.mem_side::system.mem_ctrls.port          408                       # Packet count per connected master and slave (bytes)
system.membus.pkt_count::total                   1167                       # Packet count per connected master and slave (bytes)
system.membus.pkt_size_system.cpu.icache.mem_side::system.mem_ctrls.port        26496                       # Cumulative packet size per connected master and slave (bytes)
system.membus.pkt_size_system.cpu.dcache.mem_side::system.mem_ctrls.port        12992                       # Cumulative packet size per connected master and slave (bytes)
system.membus.pkt_size::total                   39488                       # Cumulative packet size per connected master and slave (bytes)
system.membus.snoops                                0                       # Total snoops (count)
system.membus.snoopTraffic                          0                       # Total snoop traffic (bytes)
system.membus.snoop_fanout::samples               548                       # Request fanout histogram
system.membus.snoop_fanout::mean             0.025547                       # Request fanout histogram
system.membus.snoop_fanout::stdev            0.157925                       # Request fanout histogram
system.membus.snoop_fanout::underflows              0      0.00%      0.00% # Request fanout histogram
system.membus.snoop_fanout::0                     534     97.45%     97.45% # Request fanout histogram
system.membus.snoop_fanout::1                      14      2.55%    100.00% # Request fanout histogram
system.membus.snoop_fanout::2                       0      0.00%    100.00% # Request fanout histogram
system.membus.snoop_fanout::overflows               0      0.00%    100.00% # Request fanout histogram
system.membus.snoop_fanout::min_value               0                       # Request fanout histogram
system.membus.snoop_fanout::max_value               1                       # Request fanout histogram
system.membus.snoop_fanout::total                 548                       # Request fanout histogram
system.membus.reqLayer0.occupancy              447500                       # Layer occupancy (ticks)
system.membus.reqLayer0.utilization               0.1                       # Layer utilization (%)
system.membus.respLayer1.occupancy             933500                       # Layer occupancy (ticks)
system.membus.respLayer1.utilization              0.2                       # Layer utilization (%)
system.membus.respLayer2.occupancy             548500                       # Layer occupancy (ticks)
system.membus.respLayer2.utilization              0.1                       # Layer utilization (%)
system.voltage_domain.voltage                       1                       # Voltage in Volts
system.clk_domain.clock                           500                       # Clock period in ticks
system.cpu_voltage_domain.voltage                   1                       # Voltage in Volts
system.mem_ctrls.pwrStateResidencyTicks::UNDEFINED    478673000                       # Cumulative time (in ticks) in various power states
system.mem_ctrls.bytes_read::.cpu.inst          22080                       # Number of bytes read from this memory
system.mem_ctrls.bytes_read::.cpu.data          12992                       # Number of bytes read from this memory
system.mem_ctrls.bytes_read::total              35072                       # Number of bytes read from this memory
system.mem_ctrls.bytes_inst_read::.cpu.inst        22080                       # Number of instructions bytes read from this memory
system.mem_ctrls.bytes_inst_read::total         22080                       # Number of instructions bytes read from this memory
system.mem_ctrls.num_reads::.cpu.inst             345                       # Number of read requests responded to by this memory
system.mem_ctrls.num_reads::.cpu.data             203                       # Number of read requests responded to by this memory
system.mem_ctrls.num_reads::total                 548                       # Number of read requests responded to by this memory
system.mem_ctrls.bw_read::.cpu.inst          46127523                       # Total read bandwidth from this memory (bytes/s)
system.mem_ctrls.bw_read::.cpu.data          27141702                       # Total read bandwidth from this memory (bytes/s)
system.mem_ctrls.bw_read::total              73269226                       # Total read bandwidth from this memory (bytes/s)
system.mem_ctrls.bw_inst_read::.cpu.inst     46127523                       # Instruction read bandwidth from this memory (bytes/s)
system.mem_ctrls.bw_inst_read::total         46127523                       # Instruction read bandwidth from this memory (bytes/s)
system.mem_ctrls.bw_total::.cpu.inst         46127523                       # Total bandwidth to/from this memory (bytes/s)
system.mem_ctrls.bw_total::.cpu.data         27141702                       # Total bandwidth to/from this memory (bytes/s)
system.mem_ctrls.bw_total::total             73269226                       # Total bandwidth to/from this memory (bytes/s)
system.mem_ctrls.avgPriority_.writebacks::samples        65.00                       # Average QoS priority value for accepted requests
system.mem_ctrls.avgPriority_.cpu.inst::samples       334.00                       # Average QoS priority value for accepted requests
system.mem_ctrls.avgPriority_.cpu.data::samples       201.00                       # Average QoS priority value for accepted requests
system.mem_ctrls.priorityMinLatency      0.000000018750                       # per QoS priority minimum request to response latency (s)
system.mem_ctrls.priorityMaxLatency      0.000788996750                       # per QoS priority maximum request to response latency (s)
system.mem_ctrls.numReadWriteTurnArounds            2                       # Number of turnarounds from READ to WRITE
system.mem_ctrls.numWriteReadTurnArounds            3                       # Number of turnarounds from WRITE to READ
system.mem_ctrls.numStayReadState                1257                       # Number of times bus staying in READ state
system.mem_ctrls.numStayWriteState                 37                       # Number of times bus staying in WRITE state
system.mem_ctrls.readReqs                         548                       # Number of read requests accepted
system.mem_ctrls.writeReqs                         68                       # Number of write requests accepted
system.mem_ctrls.readBursts                       548                       # Number of DRAM read bursts, including those serviced by the write queue
system.mem_ctrls.writeBursts                       68                       # Number of DRAM write bursts, including those merged in the write queue
system.mem_ctrls.servicedByWrQ                     13                       # Number of DRAM read bursts serviced by the write queue
system.mem_ctrls.mergedWrBursts                     3                       # Number of DRAM write bursts merged with an existing one
system.mem_ctrls.neitherReadNorWriteReqs            0                       # Number of requests that are neither read nor write
system.mem_ctrls.perBankRdBursts::0                49                       # Per bank write bursts
system.mem_ctrls.perBankRdBursts::1                 4                       # Per bank write bursts
system.mem_ctrls.perBankRdBursts::2                32                       # Per bank write bursts
system.mem_ctrls.perBankRdBursts::3                33                       # Per bank write bursts
system.mem_ctrls.perBankRdBursts::4                21                       # Per bank write bursts
system.mem_ctrls.perBankRdBursts::5                17                       # Per bank write bursts
system.mem_ctrls.perBankRdBursts::6                51                       # Per bank write bursts
system.mem_ctrls.perBankRdBursts::7                12                       # Per bank write bursts
system.mem_ctrls.perBankRdBursts::8                78                       # Per bank write bursts
system.mem_ctrls.perBankRdBursts::9                72                       # Per bank write bursts
system.mem_ctrls.perBankRdBursts::10               37                       # Per bank write bursts
system.mem_ctrls.perBankRdBursts::11               49                       # Per bank write bursts
system.mem_ctrls.perBankRdBursts::12               52                       # Per bank write bursts
system.mem_ctrls.perBankRdBursts::13               17                       # Per bank write bursts
system.mem_ctrls.perBankRdBursts::14               10                       # Per bank write bursts
system.mem_ctrls.perBankRdBursts::15                1                       # Per bank write bursts
system.mem_ctrls.perBankWrBursts::0                15                       # Per bank write bursts
system.mem_ctrls.perBankWrBursts::1                 0                       # Per bank write bursts
system.mem_ctrls.perBankWrBursts::2                 6                       # Per bank write bursts
system.mem_ctrls.perBankWrBursts::3                 0                       # Per bank write bursts
system.mem_ctrls.perBankWrBursts::4                 0                       # Per bank write bursts
system.mem_ctrls.perBankWrBursts::5                 0                       # Per bank write bursts
system.mem_ctrls.perBankWrBursts::6                 0                       # Per bank write bursts
system.mem_ctrls.perBankWrBursts::7                 0                       # Per bank write bursts
system.mem_ctrls.perBankWrBursts::8                13                       # Per bank write bursts
system.mem_ctrls.perBankWrBursts::9                 0                       # Per bank write bursts
system.mem_ctrls.perBankWrBursts::10                0                       # Per bank write bursts
system.mem_ctrls.perBankWrBursts::11                0                       # Per bank write bursts
system.mem_ctrls.perBankWrBursts::12                6                       # Per bank write bursts
system.mem_ctrls.perBankWrBursts::13                0                       # Per bank write bursts
system.mem_ctrls.perBankWrBursts::14                0                       # Per bank write bursts
system.mem_ctrls.perBankWrBursts::15                0                       # Per bank write bursts
system.mem_ctrls.avgRdQLen                       1.00                       # Average read queue length when enqueuing
system.mem_ctrls.avgWrQLen                      24.47                       # Average write queue length when enqueuing
system.mem_ctrls.totQLat                      3728750                       # Total ticks spent queuing
system.mem_ctrls.totBusLat                    2675000                       # Total ticks spent in databus transfers
system.mem_ctrls.totMemAccLat                13760000                       # Total ticks spent from burst creation until serviced by the DRAM
system.mem_ctrls.avgQLat                      6969.63                       # Average queueing delay per DRAM burst
system.mem_ctrls.avgBusLat                    5000.00                       # Average bus latency per DRAM burst
system.mem_ctrls.avgMemAccLat                25719.63                       # Average memory access latency per DRAM burst
system.mem_ctrls.numRdRetry                         0                       # Number of times read queue was full causing retry
system.mem_ctrls.numWrRetry                         0                       # Number of times write queue was full causing retry
system.mem_ctrls.readRowHits                      403                       # Number of row buffer hits during reads
system.mem_ctrls.writeRowHits                      36                       # Number of row buffer hits during writes
system.mem_ctrls.readRowHitRate                 75.33                       # Row buffer hit rate for reads
system.mem_ctrls.writeRowHitRate                55.38                       # Row buffer hit rate for writes
system.mem_ctrls.readPktSize::0                     0                       # Read request sizes (log2)
system.mem_ctrls.readPktSize::1                     0                       # Read request sizes (log2)
system.mem_ctrls.readPktSize::2                     0                       # Read request sizes (log2)
system.mem_ctrls.readPktSize::3                     0                       # Read request sizes (log2)
system.mem_ctrls.readPktSize::4                     0                       # Read request sizes (log2)
system.mem_ctrls.readPktSize::5                     0                       # Read request sizes (log2)
system.mem_ctrls.readPktSize::6                   548                       # Read request sizes (log2)
system.mem_ctrls.writePktSize::0                    0                       # Write request sizes (log2)
system.mem_ctrls.writePktSize::1                    0                       # Write request sizes (log2)
system.mem_ctrls.writePktSize::2                    0                       # Write request sizes (log2)
system.mem_ctrls.writePktSize::3                    0                       # Write request sizes (log2)
system.mem_ctrls.writePktSize::4                    0                       # Write request sizes (log2)
system.mem_ctrls.writePktSize::5                    0                       # Write request sizes (log2)
system.mem_ctrls.writePktSize::6                   68                       # Write request sizes (log2)
system.mem_ctrls.rdQLenPdf::0                     532                       # What read queue length does an incoming req see
system.mem_ctrls.rdQLenPdf::1                       3                       # What read queue length does an incoming req see
system.mem_ctrls.rdQLenPdf::2                       0                       # What read queue length does an incoming req see
system.mem_ctrls.rdQLenPdf::3                       0                       # What read queue length does an incoming req see
system.mem_ctrls.rdQLenPdf::4                       0                       # What read queue length does an incoming req see
system.mem_ctrls.rdQLenPdf::5                       0                       # What read queue length does an incoming req see
system.mem_ctrls.rdQLenPdf::6                       0                       # What read queue length does an incoming req see
system.mem_ctrls.rdQLenPdf::7                       0                       # What read queue length does an incoming req see
system.mem_ctrls.rdQLenPdf::8                       0                       # What read queue length does an incoming req see
system.mem_ctrls.rdQLenPdf::9                       0                       # What read queue length does an incoming req see
system.mem_ctrls.rdQLenPdf::10                      0                       # What read queue length does an incoming req see
system.mem_ctrls.rdQLenPdf::11                      0                       # What read queue length does an incoming req see
system.mem_ctrls.rdQLenPdf::12                      0                       # What read queue length does an incoming req see
system.mem_ctrls.rdQLenPdf::13                      0                       # What read queue length does an incoming req see
system.mem_ctrls.rdQLenPdf::14                      0                       # What read queue length does an incoming req see
system.mem_ctrls.rdQLenPdf::15                      0                       # What read queue length does an incoming req see
system.mem_ctrls.rdQLenPdf::16                      0                       # What read queue length does an incoming req see
system.mem_ctrls.rdQLenPdf::17                      0                       # What read queue length does an incoming req see
system.mem_ctrls.rdQLenPdf::18                      0                       # What read queue length does an incoming req see
system.mem_ctrls.rdQLenPdf::19                      0                       # What read queue length does an incoming req see
system.mem_ctrls.rdQLenPdf::20                      0                       # What read queue length does an incoming req see
system.mem_ctrls.rdQLenPdf::21                      0                       # What read queue length does an incoming req see
system.mem_ctrls.rdQLenPdf::22                      0                       # What read queue length does an incoming req see
system.mem_ctrls.rdQLenPdf::23                      0                       # What read queue length does an incoming req see
system.mem_ctrls.rdQLenPdf::24                      0                       # What read queue length does an incoming req see
system.mem_ctrls.rdQLenPdf::25                      0                       # What read queue length does an incoming req see
system.mem_ctrls.rdQLenPdf::26                      0                       # What read queue length does an incoming req see
system.mem_ctrls.rdQLenPdf::27                      0                       # What read queue length does an incoming req see
system.mem_ctrls.rdQLenPdf::28                      0                       # What read queue length does an incoming req see
system.mem_ctrls.rdQLenPdf::29                      0                       # What read queue length does an incoming req see
system.mem_ctrls.rdQLenPdf::30                      0                       # What read queue length does an incoming req see
system.mem_ctrls.rdQLenPdf::31                      0                       # What read queue length does an incoming req see
system.mem_ctrls.wrQLenPdf::0                       1                       # What write queue length does an incoming req see
system.mem_ctrls.wrQLenPdf::1                       1                       # What write queue length does an incoming req see
system.mem_ctrls.wrQLenPdf::2                       1                       # What write queue length does an incoming req see
system.mem_ctrls.wrQLenPdf::3                       1                       # What write queue length does an incoming req see
system.mem_ctrls.wrQLenPdf::4                       1                       # What write queue length does an incoming req see
system.mem_ctrls.wrQLenPdf::5                       1                       # What write queue length does an incoming req see
system.mem_ctrls.wrQLenPdf::6                       1                       # What write queue length does an incoming req see
system.mem_ctrls.wrQLenPdf::7                       1                       # What write queue length does an incoming req see
system.mem_ctrls.wrQLenPdf::8                       1                       # What write queue length does an incoming req see
system.mem_ctrls.wrQLenPdf::9                       1                       # What write queue length does an incoming req see
system.mem_ctrls.wrQLenPdf::10                      1                       # What write queue length does an incoming req see
system.mem_ctrls.wrQLenPdf::11                      1                       # What write queue length does an incoming req see
system.mem_ctrls.wrQLenPdf::12                      1                       # What write queue length does an incoming req see
system.mem_ctrls.wrQLenPdf::13                      1                       # What write queue length does an incoming req see
system.mem_ctrls.wrQLenPdf::14                      1                       # What write queue length does an incoming req see
system.mem_ctrls.wrQLenPdf::15                      1                       # What write queue length does an incoming req see
system.mem_ctrls.wrQLenPdf::16                      1                       # What write queue length does an incoming req see
system.mem_ctrls.wrQLenPdf::17                      3                       # What write queue length does an incoming req see
system.mem_ctrls.wrQLenPdf::18                      3                       # What write queue length does an incoming req see
system.mem_ctrls.wrQLenPdf::19                      3                       # What write queue length does an incoming req see
system.mem_ctrls.wrQLenPdf::20                      3                       # What write queue length does an incoming req see
system.mem_ctrls.wrQLenPdf::21                      3                       # What write queue length does an incoming req see
system.mem_ctrls.wrQLenPdf::22                      3                       # What write queue length does an incoming req see
system.mem_ctrls.wrQLenPdf::23                      3                       # What write queue length does an incoming req see
system.mem_ctrls.wrQLenPdf::24                      3                       # What write queue length does an incoming req see
system.mem_ctrls.wrQLenPdf::25                      3                       # What write queue length does an incoming req see
system.mem_ctrls.wrQLenPdf::26                      3                       # What write queue length does an incoming req see
system.mem_ctrls.wrQLenPdf::27                      3                       # What write queue length does an incoming req see
system.mem_ctrls.wrQLenPdf::28                      3                       # What write queue length does an incoming req see
system.mem_ctrls.wrQLenPdf::29                      3                       # What write queue length does an incoming req see
system.mem_ctrls.wrQLenPdf::30                      3                       # What write queue length does an incoming req see
system.mem_ctrls.wrQLenPdf::31                      3                       # What write queue length does an incoming req see
system.mem_ctrls.wrQLenPdf::32                      3                       # What write queue length does an incoming req see
system.mem_ctrls.wrQLenPdf::33                      0                       # What write queue length does an incoming req see
system.mem_ctrls.wrQLenPdf::34                      0                       # What write queue length does an incoming req see
system.mem_ctrls.wrQLenPdf::35                      0                       # What write queue length does an incoming req see
system.mem_ctrls.wrQLenPdf::36                      0                       # What write queue length does an incoming req see
system.mem_ctrls.wrQLenPdf::37                      0                       # What write queue length does an incoming req see
system.mem_ctrls.wrQLenPdf::38                      0                       # What write queue length does an incoming req see
system.mem_ctrls.wrQLenPdf::39                      0                       # What write queue length does an incoming req see
system.mem_ctrls.wrQLenPdf::40                      0                       # What write queue length does an incoming req see
system.mem_ctrls.wrQLenPdf::41                      0                       # What write queue length does an incoming req see
system.mem_ctrls.wrQLenPdf::42                      0                       # What write queue length does an incoming req see
system.mem_ctrls.wrQLenPdf::43                      0                       # What write queue length does an incoming req see
system.mem_ctrls.wrQLenPdf::44                      0                       # What write queue length does an incoming req see
system.mem_ctrls.wrQLenPdf::45                      0                       # What write queue length does an incoming req see
system.mem_ctrls.wrQLenPdf::46                      0                       # What write queue length does an incoming req see
system.mem_ctrls.wrQLenPdf::47                      0                       # What write queue length does an incoming req see
system.mem_ctrls.wrQLenPdf::48                      0                       # What write queue length does an incoming req see
system.mem_ctrls.wrQLenPdf::49                      0                       # What write queue length does an incoming req see
system.mem_ctrls.wrQLenPdf::50                      0                       # What write queue length does an incoming req see
system.mem_ctrls.wrQLenPdf::51                      0                       # What write queue length does an incoming req see
system.mem_ctrls.wrQLenPdf::52                      0                       # What write queue length does an incoming req see
system.mem_ctrls.wrQLenPdf::53                      0                       # What write queue length does an incoming req see
system.mem_ctrls.wrQLenPdf::54                      0                       # What write queue length does an incoming req see
system.mem_ctrls.wrQLenPdf::55                      0                       # What write queue length does an incoming req see
system.mem_ctrls.wrQLenPdf::56                      0                       # What write queue length does an incoming req see
system.mem_ctrls.wrQLenPdf::57                      0                       # What write queue length does an incoming req see
system.mem_ctrls.wrQLenPdf::58                      0                       # What write queue length does an incoming req see
system.mem_ctrls.wrQLenPdf::59                      0                       # What write queue length does an incoming req see
system.mem_ctrls.wrQLenPdf::60                      0                       # What write queue length does an incoming req see
system.mem_ctrls.wrQLenPdf::61                      0                       # What write queue length does an incoming req see
system.mem_ctrls.wrQLenPdf::62                      0                       # What write queue length does an incoming req see
system.mem_ctrls.wrQLenPdf::63                      0                       # What write queue length does an incoming req see
system.mem_ctrls.bytesPerActivate::samples          129                       # Bytes accessed per row activation
system.mem_ctrls.bytesPerActivate::mean    270.387597                       # Bytes accessed per row activation
system.mem_ctrls.bytesPerActivate::gmean   183.090775                       # Bytes accessed per row activation
system.mem_ctrls.bytesPerActivate::stdev   260.490652                       # Bytes accessed per row activation
system.mem_ctrls.bytesPerActivate::0-127           37     28.68%     28.68% # Bytes accessed per row activation
system.mem_ctrls.bytesPerActivate::128-255           36     27.91%     56.59% # Bytes accessed per row activation
system.mem_ctrls.bytesPerActivate::256-383           26     20.16%     76.74% # Bytes accessed per row activation
system.mem_ctrls.bytesPerActivate::384-511           11      8.53%     85.27% # Bytes accessed per row activation
system.mem_ctrls.bytesPerActivate::512-639            1      0.78%     86.05% # Bytes accessed per row activation
system.mem_ctrls.bytesPerActivate::640-767            5      3.88%     89.92% # Bytes accessed per row activation
system.mem_ctrls.bytesPerActivate::768-895            6      4.65%     94.57% # Bytes accessed per row activation
system.mem_ctrls.bytesPerActivate::896-1023            1      0.78%     95.35% # Bytes accessed per row activation
system.mem_ctrls.bytesPerActivate::1024-1151            6      4.65%    100.00% # Bytes accessed per row activation
system.mem_ctrls.bytesPerActivate::total          129                       # Bytes accessed per row activation
system.mem_ctrls.rdPerTurnAround::samples            3                       # Reads before turning the bus around for writes
system.mem_ctrls.rdPerTurnAround::mean     178.333333                       # Reads before turning the bus around for writes
system.mem_ctrls.rdPerTurnAround::gmean    120.173084                       # Reads before turning the bus around for writes
system.mem_ctrls.rdPerTurnAround::stdev    187.580205                       # Reads before turning the bus around for writes
system.mem_ctrls.rdPerTurnAround::32-47             1     33.33%     33.33% # Reads before turning the bus around for writes
system.mem_ctrls.rdPerTurnAround::96-111            1     33.33%     66.67% # Reads before turning the bus around for writes
system.mem_ctrls.rdPerTurnAround::384-399            1     33.33%    100.00% # Reads before turning the bus around for writes
system.mem_ctrls.rdPerTurnAround::total             3                       # Reads before turning the bus around for writes
system.mem_ctrls.wrPerTurnAround::samples            2                       # Writes before turning the bus around for reads
system.mem_ctrls.wrPerTurnAround::mean             16                       # Writes before turning the bus around for reads
system.mem_ctrls.wrPerTurnAround::gmean     16.000000                       # Writes before turning the bus around for reads
system.mem_ctrls.wrPerTurnAround::16                2    100.00%    100.00% # Writes before turning the bus around for reads
system.mem_ctrls.wrPerTurnAround::total             2                       # Writes before turning the bus around for reads
system.mem_ctrls.bytesReadDRAM                  34240                       # Total number of bytes read from DRAM
system.mem_ctrls.bytesReadWrQ                     832                       # Total number of bytes read from write queue
system.mem_ctrls.bytesWritten                    2560                       # Total number of bytes written to DRAM
system.mem_ctrls.bytesReadSys                   35072                       # Total read bytes from the system interface side
system.mem_ctrls.bytesWrittenSys                 4352                       # Total written bytes from the system interface side
system.mem_ctrls.avgRdBW                        71.53                       # Average DRAM read bandwidth in MiByte/s
system.mem_ctrls.avgWrBW                         5.35                       # Average achieved write bandwidth in MiByte/s
system.mem_ctrls.avgRdBWSys                     73.27                       # Average system read bandwidth in MiByte/s
system.mem_ctrls.avgWrBWSys                      9.09                       # Average system write bandwidth in MiByte/s
system.mem_ctrls.peakBW                      12800.00                       # Theoretical peak bandwidth in MiByte/s
system.mem_ctrls.busUtil                         0.60                       # Data bus utilization in percentage
system.mem_ctrls.busUtilRead                     0.56                       # Data bus utilization in percentage for reads
system.mem_ctrls.busUtilWrite                    0.04                       # Data bus utilization in percentage for writes
system.mem_ctrls.totGap                     478661000                       # Total gap between requests
system.mem_ctrls.avgGap                     777047.08                       # Average gap between requests
system.mem_ctrls.masterReadBytes::.cpu.inst        21376                       # Per-master bytes read from memory
system.mem_ctrls.masterReadBytes::.cpu.data        12864                       # Per-master bytes read from memory
system.mem_ctrls.masterWriteBytes::.writebacks         2560                       # Per-master bytes write to memory
system.mem_ctrls.masterReadRate::.cpu.inst 44656790.752768591046                       # Per-master bytes read from memory rate (Bytes/sec)
system.mem_ctrls.masterReadRate::.cpu.data 26874296.231456547976                       # Per-master bytes read from memory rate (Bytes/sec)
system.mem_ctrls.masterWriteRate::.writebacks 5348118.653026178479                       # Per-master bytes write to memory rate (Bytes/sec)
system.mem_ctrls.masterReadAccesses::.cpu.inst          345                       # Per-master read serviced memory accesses
system.mem_ctrls.masterReadAccesses::.cpu.data          203                       # Per-master read serviced memory accesses
system.mem_ctrls.masterWriteAccesses::.writebacks           68                       # Per-master write serviced memory accesses
system.mem_ctrls.masterReadTotalLat::.cpu.inst      8793500                       # Per-master read total memory access latency
system.mem_ctrls.masterReadTotalLat::.cpu.data      4966500                       # Per-master read total memory access latency
system.mem_ctrls.masterWriteTotalLat::.writebacks   6100912000                       # Per-master write total memory access latency
system.mem_ctrls.masterReadAvgLat::.cpu.inst     25488.41                       # Per-master read average memory access latency
system.mem_ctrls.masterReadAvgLat::.cpu.data     24465.52                       # Per-master read average memory access latency
system.mem_ctrls.masterWriteAvgLat::.writebacks  89719294.12                       # Per-master write average memory access latency
system.mem_ctrls.pageHitRate                    73.17                       # Row buffer hit rate, read and write combined
system.mem_ctrls.rank1.actEnergy               606900                       # Energy for activate commands per rank (pJ)
system.mem_ctrls.rank1.preEnergy               307395                       # Energy for precharge commands per rank (pJ)
system.mem_ctrls.rank1.readEnergy             2256240                       # Energy for read commands per rank (pJ)
system.mem_ctrls.rank1.writeEnergy              99180                       # Energy for write commands per rank (pJ)
system.mem_ctrls.rank1.refreshEnergy     37493040.000000                       # Energy for refresh commands per rank (pJ)
system.mem_ctrls.rank1.actBackEnergy         52811070                       # Energy for active background per rank (pJ)
system.mem_ctrls.rank1.preBackEnergy        139338240                       # Energy for precharge background per rank (pJ)
system.mem_ctrls.rank1.actPowerDownEnergy            0                       # Energy for active power-down per rank (pJ)
system.mem_ctrls.rank1.prePowerDownEnergy            0                       # Energy for precharge power-down per rank (pJ)
system.mem_ctrls.rank1.selfRefreshEnergy            0                       # Energy for self refresh per rank (pJ)
system.mem_ctrls.rank1.totalEnergy          232912065                       # Total energy per rank (pJ)
system.mem_ctrls.rank1.averagePower        486.578656                       # Core power per rank (mW)
system.mem_ctrls.rank1.totalIdleTime                0                       # Total Idle time Per DRAM Rank
system.mem_ctrls.rank1.memoryStateTime::IDLE    361808000                       # Time in different power states
system.mem_ctrls.rank1.memoryStateTime::REF     15860000                       # Time in different power states
system.mem_ctrls.rank1.memoryStateTime::SREF            0                       # Time in different power states
system.mem_ctrls.rank1.memoryStateTime::PRE_PDN            0                       # Time in different power states
system.mem_ctrls.rank1.memoryStateTime::ACT    101005000                       # Time in different power states
system.mem_ctrls.rank1.memoryStateTime::ACT_PDN            0                       # Time in different power states
system.mem_ctrls.rank0.actEnergy               364140                       # Energy for activate commands per rank (pJ)
system.mem_ctrls.rank0.preEnergy               178365                       # Energy for precharge commands per rank (pJ)
system.mem_ctrls.rank0.readEnergy             1563660                       # Energy for read commands per rank (pJ)
system.mem_ctrls.rank0.writeEnergy              83520                       # Energy for write commands per rank (pJ)
system.mem_ctrls.rank0.refreshEnergy     37493040.000000                       # Energy for refresh commands per rank (pJ)
system.mem_ctrls.rank0.actBackEnergy         43220250                       # Energy for active background per rank (pJ)
system.mem_ctrls.rank0.preBackEnergy        147414720                       # Energy for precharge background per rank (pJ)
system.mem_ctrls.rank0.actPowerDownEnergy            0                       # Energy for active power-down per rank (pJ)
system.mem_ctrls.rank0.prePowerDownEnergy            0                       # Energy for precharge power-down per rank (pJ)
system.mem_ctrls.rank0.selfRefreshEnergy            0                       # Energy for self refresh per rank (pJ)
system.mem_ctrls.rank0.totalEnergy          230317695                       # Total energy per rank (pJ)
system.mem_ctrls.rank0.averagePower        481.158735                       # Core power per rank (mW)
system.mem_ctrls.rank0.totalIdleTime                0                       # Total Idle time Per DRAM Rank
system.mem_ctrls.rank0.memoryStateTime::IDLE    382871250                       # Time in different power states
system.mem_ctrls.rank0.memoryStateTime::REF     15860000                       # Time in different power states
system.mem_ctrls.rank0.memoryStateTime::SREF            0                       # Time in different power states
system.mem_ctrls.rank0.memoryStateTime::PRE_PDN            0                       # Time in different power states
system.mem_ctrls.rank0.memoryStateTime::ACT     79941750                       # Time in different power states
system.mem_ctrls.rank0.memoryStateTime::ACT_PDN            0                       # Time in different power states
system.cpu_clk_domain.clock                       500                       # Clock period in ticks
system.cpu.numPwrStateTransitions                   1                       # Number of power state transitions
system.cpu.pwrStateResidencyTicks::ON       478673000                       # Cumulative time (in ticks) in various power states
system.cpu.icache.pwrStateResidencyTicks::UNDEFINED    478673000                       # Cumulative time (in ticks) in various power states
system.cpu.icache.demand_hits::.cpu.inst       342638                       # number of demand (read+write) hits
system.cpu.icache.demand_hits::total           342638                       # number of demand (read+write) hits
system.cpu.icache.overall_hits::.cpu.inst       342638                       # number of overall hits
system.cpu.icache.overall_hits::total          342638                       # number of overall hits
system.cpu.icache.demand_misses::.cpu.inst          345                       # number of demand (read+write) misses
system.cpu.icache.demand_misses::total            345                       # number of demand (read+write) misses
system.cpu.icache.overall_misses::.cpu.inst          345                       # number of overall misses
system.cpu.icache.overall_misses::total           345                       # number of overall misses
system.cpu.icache.demand_miss_latency::.cpu.inst     18082000                       # number of demand (read+write) miss cycles
system.cpu.icache.demand_miss_latency::total     18082000                       # number of demand (read+write) miss cycles
system.cpu.icache.overall_miss_latency::.cpu.inst     18082000                       # number of overall miss cycles
system.cpu.icache.overall_miss_latency::total     18082000                       # number of overall miss cycles
system.cpu.icache.demand_accesses::.cpu.inst       342983                       # number of demand (read+write) accesses
system.cpu.icache.demand_accesses::total       342983                       # number of demand (read+write) accesses
system.cpu.icache.overall_accesses::.cpu.inst       342983                       # number of overall (read+write) accesses
system.cpu.icache.overall_accesses::total       342983                       # number of overall (read+write) accesses
system.cpu.icache.demand_miss_rate::.cpu.inst     0.001006                       # miss rate for demand accesses
system.cpu.icache.demand_miss_rate::total     0.001006                       # miss rate for demand accesses
system.cpu.icache.overall_miss_rate::.cpu.inst     0.001006                       # miss rate for overall accesses
system.cpu.icache.overall_miss_rate::total     0.001006                       # miss rate for overall accesses
system.cpu.icache.demand_avg_miss_latency::.cpu.inst 52411.594203                       # average overall miss latency
system.cpu.icache.demand_avg_miss_latency::total 52411.594203                       # average overall miss latency
system.cpu.icache.overall_avg_miss_latency::.cpu.inst 52411.594203                       # average overall miss latency
system.cpu.icache.overall_avg_miss_latency::total 52411.594203                       # average overall miss latency
system.cpu.icache.blocked_cycles::no_mshrs            0                       # number of cycles access was blocked
system.cpu.icache.blocked_cycles::no_targets            0                       # number of cycles access was blocked
system.cpu.icache.blocked::no_mshrs                 0                       # number of cycles access was blocked
system.cpu.icache.blocked::no_targets               0                       # number of cycles access was blocked
system.cpu.icache.avg_blocked_cycles::no_mshrs          nan                       # average number of cycles each access was blocked
system.cpu.icache.avg_blocked_cycles::no_targets          nan                       # average number of cycles each access was blocked
system.cpu.icache.writebacks::.writebacks           69                       # number of writebacks
system.cpu.icache.writebacks::total                69                       # number of writebacks
system.cpu.icache.demand_mshr_misses::.cpu.inst          345                       # number of demand (read+write) MSHR misses
system.cpu.icache.demand_mshr_misses::total          345                       # number of demand (read+write) MSHR misses
system.cpu.icache.overall_mshr_misses::.cpu.inst          345                       # number of overall MSHR misses
system.cpu.icache.overall_mshr_misses::total          345                       # number of overall MSHR misses
system.cpu.icache.demand_mshr_miss_latency::.cpu.inst     17737000                       # number of demand (read+write) MSHR miss cycles
system.cpu.icache.demand_mshr_miss_latency::total     17737000                       # number of demand (read+write) MSHR miss cycles
system.cpu.icache.overall_mshr_miss_latency::.cpu.inst     17737000                       # number of overall MSHR miss cycles
system.cpu.icache.overall_mshr_miss_latency::total     17737000                       # number of overall MSHR miss cycles
system.cpu.icache.demand_mshr_miss_rate::.cpu.inst     0.001006                       # mshr miss rate for demand accesses
system.cpu.icache.demand_mshr_miss_rate::total     0.001006                       # mshr miss rate for demand accesses
system.cpu.icache.overall_mshr_miss_rate::.cpu.inst     0.001006                       # mshr miss rate for overall accesses
system.cpu.icache.overall_mshr_miss_rate::total     0.001006                       # mshr miss rate for overall accesses
system.cpu.icache.demand_avg_mshr_miss_latency::.cpu.inst 51411.594203                       # average overall mshr miss latency
system.cpu.icache.demand_avg_mshr_miss_latency::total 51411.594203                       # average overall mshr miss latency
system.cpu.icache.overall_avg_mshr_miss_latency::.cpu.inst 51411.594203                       # average overall mshr miss latency
system.cpu.icache.overall_avg_mshr_miss_latency::total 51411.594203                       # average overall mshr miss latency
system.cpu.icache.replacements                     69                       # number of replacements
system.cpu.icache.ReadReq_hits::.cpu.inst       342638                       # number of ReadReq hits
system.cpu.icache.ReadReq_hits::total          342638                       # number of ReadReq hits
system.cpu.icache.ReadReq_misses::.cpu.inst          345                       # number of ReadReq misses
system.cpu.icache.ReadReq_misses::total           345                       # number of ReadReq misses
system.cpu.icache.ReadReq_miss_latency::.cpu.inst     18082000                       # number of ReadReq miss cycles
system.cpu.icache.ReadReq_miss_latency::total     18082000                       # number of ReadReq miss cycles
system.cpu.icache.ReadReq_accesses::.cpu.inst       342983                       # number of ReadReq accesses(hits+misses)
system.cpu.icache.ReadReq_accesses::total       342983                       # number of ReadReq accesses(hits+misses)
system.cpu.icache.ReadReq_miss_rate::.cpu.inst     0.001006                       # miss rate for ReadReq accesses
system.cpu.icache.ReadReq_miss_rate::total     0.001006                       # miss rate for ReadReq accesses
system.cpu.icache.ReadReq_avg_miss_latency::.cpu.inst 52411.594203                       # average ReadReq miss latency
system.cpu.icache.ReadReq_avg_miss_latency::total 52411.594203                       # average ReadReq miss latency
system.cpu.icache.ReadReq_mshr_misses::.cpu.inst          345                       # number of ReadReq MSHR misses
system.cpu.icache.ReadReq_mshr_misses::total          345                       # number of ReadReq MSHR misses
system.cpu.icache.ReadReq_mshr_miss_latency::.cpu.inst     17737000                       # number of ReadReq MSHR miss cycles
system.cpu.icache.ReadReq_mshr_miss_latency::total     17737000                       # number of ReadReq MSHR miss cycles
system.cpu.icache.ReadReq_mshr_miss_rate::.cpu.inst     0.001006                       # mshr miss rate for ReadReq accesses
system.cpu.icache.ReadReq_mshr_miss_rate::total     0.001006                       # mshr miss rate for ReadReq accesses
system.cpu.icache.ReadReq_avg_mshr_miss_latency::.cpu.inst 51411.594203                       # average ReadReq mshr miss latency
system.cpu.icache.ReadReq_avg_mshr_miss_latency::total 51411.594203                       # average ReadReq mshr miss latency
system.cpu.icache.tags.pwrStateResidencyTicks::UNDEFINED    478673000                       # Cumulative time (in ticks) in various power states
system.cpu.icache.tags.tagsinuse           235.162194                       # Cycle average of tags in use
system.cpu.icache.tags.total_refs              342983                       # Total number of references to valid blocks.
system.cpu.icache.tags.sampled_refs               345                       # Sample count of references to valid blocks.
system.cpu.icache.tags.avg_refs            994.153623                       # Average number of references to valid blocks.
system.cpu.icache.tags.warmup_cycle             71500                       # Cycle when the warmup percentage was hit.
system.cpu.icache.tags.occ_blocks::.cpu.inst   235.162194                       # Average occupied blocks per requestor
system.cpu.icache.tags.occ_percent::.cpu.inst     0.459301                       # Average percentage of cache occupancy
system.cpu.icache.tags.occ_percent::total     0.459301                       # Average percentage of cache occupancy
system.cpu.icache.tags.occ_task_id_blocks::1024          276                       # Occupied blocks per task id
system.cpu.icache.tags.age_task_id_blocks_1024::0           37                       # Occupied blocks per task id
system.cpu.icache.tags.age_task_id_blocks_1024::2          239                       # Occupied blocks per task id
system.cpu.icache.tags.occ_task_id_percent::1024     0.539062                       # Percentage of cache occupancy per task id
system.cpu.icache.tags.tag_accesses            686311                       # Number of tag accesses
system.cpu.icache.tags.data_accesses           686311                       # Number of data accesses
system.cpu.dtb.walker.pwrStateResidencyTicks::UNDEFINED    478673000                       # Cumulative time (in ticks) in various power states
system.cpu.dtb.stage2_mmu.stage2_tlb.walker.pwrStateResidencyTicks::UNDEFINED    478673000                       # Cumulative time (in ticks) in various power states
system.cpu.itb.walker.pwrStateResidencyTicks::UNDEFINED    478673000                       # Cumulative time (in ticks) in various power states
system.cpu.itb.stage2_mmu.stage2_tlb.walker.pwrStateResidencyTicks::UNDEFINED    478673000                       # Cumulative time (in ticks) in various power states
system.cpu.dcache.pwrStateResidencyTicks::UNDEFINED    478673000                       # Cumulative time (in ticks) in various power states
system.cpu.dcache.demand_hits::.cpu.data       105665                       # number of demand (read+write) hits
system.cpu.dcache.demand_hits::total           105665                       # number of demand (read+write) hits
system.cpu.dcache.overall_hits::.cpu.data       105694                       # number of overall hits
system.cpu.dcache.overall_hits::total          105694                       # number of overall hits
system.cpu.dcache.demand_misses::.cpu.data          193                       # number of demand (read+write) misses
system.cpu.dcache.demand_misses::total            193                       # number of demand (read+write) misses
system.cpu.dcache.overall_misses::.cpu.data          206                       # number of overall misses
system.cpu.dcache.overall_misses::total           206                       # number of overall misses
system.cpu.dcache.demand_miss_latency::.cpu.data      9951000                       # number of demand (read+write) miss cycles
system.cpu.dcache.demand_miss_latency::total      9951000                       # number of demand (read+write) miss cycles
system.cpu.dcache.overall_miss_latency::.cpu.data      9951000                       # number of overall miss cycles
system.cpu.dcache.overall_miss_latency::total      9951000                       # number of overall miss cycles
system.cpu.dcache.demand_accesses::.cpu.data       105858                       # number of demand (read+write) accesses
system.cpu.dcache.demand_accesses::total       105858                       # number of demand (read+write) accesses
system.cpu.dcache.overall_accesses::.cpu.data       105900                       # number of overall (read+write) accesses
system.cpu.dcache.overall_accesses::total       105900                       # number of overall (read+write) accesses
system.cpu.dcache.demand_miss_rate::.cpu.data     0.001823                       # miss rate for demand accesses
system.cpu.dcache.demand_miss_rate::total     0.001823                       # miss rate for demand accesses
system.cpu.dcache.overall_miss_rate::.cpu.data     0.001945                       # miss rate for overall accesses
system.cpu.dcache.overall_miss_rate::total     0.001945                       # miss rate for overall accesses
system.cpu.dcache.demand_avg_miss_latency::.cpu.data 51559.585492                       # average overall miss latency
system.cpu.dcache.demand_avg_miss_latency::total 51559.585492                       # average overall miss latency
system.cpu.dcache.overall_avg_miss_latency::.cpu.data 48305.825243                       # average overall miss latency
system.cpu.dcache.overall_avg_miss_latency::total 48305.825243                       # average overall miss latency
system.cpu.dcache.blocked_cycles::no_mshrs            0                       # number of cycles access was blocked
system.cpu.dcache.blocked_cycles::no_targets            0                       # number of cycles access was blocked
system.cpu.dcache.blocked::no_mshrs                 0                       # number of cycles access was blocked
system.cpu.dcache.blocked::no_targets               0                       # number of cycles access was blocked
system.cpu.dcache.avg_blocked_cycles::no_mshrs          nan                       # average number of cycles each access was blocked
system.cpu.dcache.avg_blocked_cycles::no_targets          nan                       # average number of cycles each access was blocked
system.cpu.dcache.demand_mshr_hits::.cpu.data            1                       # number of demand (read+write) MSHR hits
system.cpu.dcache.demand_mshr_hits::total            1                       # number of demand (read+write) MSHR hits
system.cpu.dcache.overall_mshr_hits::.cpu.data            1                       # number of overall MSHR hits
system.cpu.dcache.overall_mshr_hits::total            1                       # number of overall MSHR hits
system.cpu.dcache.demand_mshr_misses::.cpu.data          192                       # number of demand (read+write) MSHR misses
system.cpu.dcache.demand_mshr_misses::total          192                       # number of demand (read+write) MSHR misses
system.cpu.dcache.overall_mshr_misses::.cpu.data          202                       # number of overall MSHR misses
system.cpu.dcache.overall_mshr_misses::total          202                       # number of overall MSHR misses
system.cpu.dcache.demand_mshr_miss_latency::.cpu.data      9711500                       # number of demand (read+write) MSHR miss cycles
system.cpu.dcache.demand_mshr_miss_latency::total      9711500                       # number of demand (read+write) MSHR miss cycles
system.cpu.dcache.overall_mshr_miss_latency::.cpu.data     10229000                       # number of overall MSHR miss cycles
system.cpu.dcache.overall_mshr_miss_latency::total     10229000                       # number of overall MSHR miss cycles
system.cpu.dcache.demand_mshr_miss_rate::.cpu.data     0.001814                       # mshr miss rate for demand accesses
system.cpu.dcache.demand_mshr_miss_rate::total     0.001814                       # mshr miss rate for demand accesses
system.cpu.dcache.overall_mshr_miss_rate::.cpu.data     0.001907                       # mshr miss rate for overall accesses
system.cpu.dcache.overall_mshr_miss_rate::total     0.001907                       # mshr miss rate for overall accesses
system.cpu.dcache.demand_avg_mshr_miss_latency::.cpu.data 50580.729167                       # average overall mshr miss latency
system.cpu.dcache.demand_avg_mshr_miss_latency::total 50580.729167                       # average overall mshr miss latency
system.cpu.dcache.overall_avg_mshr_miss_latency::.cpu.data 50638.613861                       # average overall mshr miss latency
system.cpu.dcache.overall_avg_mshr_miss_latency::total 50638.613861                       # average overall mshr miss latency
system.cpu.dcache.replacements                      2                       # number of replacements
system.cpu.dcache.ReadReq_hits::.cpu.data        59296                       # number of ReadReq hits
system.cpu.dcache.ReadReq_hits::total           59296                       # number of ReadReq hits
system.cpu.dcache.ReadReq_misses::.cpu.data           95                       # number of ReadReq misses
system.cpu.dcache.ReadReq_misses::total            95                       # number of ReadReq misses
system.cpu.dcache.ReadReq_miss_latency::.cpu.data      5060500                       # number of ReadReq miss cycles
system.cpu.dcache.ReadReq_miss_latency::total      5060500                       # number of ReadReq miss cycles
system.cpu.dcache.ReadReq_accesses::.cpu.data        59391                       # number of ReadReq accesses(hits+misses)
system.cpu.dcache.ReadReq_accesses::total        59391                       # number of ReadReq accesses(hits+misses)
system.cpu.dcache.ReadReq_miss_rate::.cpu.data     0.001600                       # miss rate for ReadReq accesses
system.cpu.dcache.ReadReq_miss_rate::total     0.001600                       # miss rate for ReadReq accesses
system.cpu.dcache.ReadReq_avg_miss_latency::.cpu.data 53268.421053                       # average ReadReq miss latency
system.cpu.dcache.ReadReq_avg_miss_latency::total 53268.421053                       # average ReadReq miss latency
system.cpu.dcache.ReadReq_mshr_hits::.cpu.data            1                       # number of ReadReq MSHR hits
system.cpu.dcache.ReadReq_mshr_hits::total            1                       # number of ReadReq MSHR hits
system.cpu.dcache.ReadReq_mshr_misses::.cpu.data           94                       # number of ReadReq MSHR misses
system.cpu.dcache.ReadReq_mshr_misses::total           94                       # number of ReadReq MSHR misses
system.cpu.dcache.ReadReq_mshr_miss_latency::.cpu.data      4919000                       # number of ReadReq MSHR miss cycles
system.cpu.dcache.ReadReq_mshr_miss_latency::total      4919000                       # number of ReadReq MSHR miss cycles
system.cpu.dcache.ReadReq_mshr_miss_rate::.cpu.data     0.001583                       # mshr miss rate for ReadReq accesses
system.cpu.dcache.ReadReq_mshr_miss_rate::total     0.001583                       # mshr miss rate for ReadReq accesses
system.cpu.dcache.ReadReq_avg_mshr_miss_latency::.cpu.data 52329.787234                       # average ReadReq mshr miss latency
system.cpu.dcache.ReadReq_avg_mshr_miss_latency::total 52329.787234                       # average ReadReq mshr miss latency
system.cpu.dcache.WriteReq_hits::.cpu.data        46369                       # number of WriteReq hits
system.cpu.dcache.WriteReq_hits::total          46369                       # number of WriteReq hits
system.cpu.dcache.WriteReq_misses::.cpu.data           98                       # number of WriteReq misses
system.cpu.dcache.WriteReq_misses::total           98                       # number of WriteReq misses
system.cpu.dcache.WriteReq_miss_latency::.cpu.data      4890500                       # number of WriteReq miss cycles
system.cpu.dcache.WriteReq_miss_latency::total      4890500                       # number of WriteReq miss cycles
system.cpu.dcache.WriteReq_accesses::.cpu.data        46467                       # number of WriteReq accesses(hits+misses)
system.cpu.dcache.WriteReq_accesses::total        46467                       # number of WriteReq accesses(hits+misses)
system.cpu.dcache.WriteReq_miss_rate::.cpu.data     0.002109                       # miss rate for WriteReq accesses
system.cpu.dcache.WriteReq_miss_rate::total     0.002109                       # miss rate for WriteReq accesses
system.cpu.dcache.WriteReq_avg_miss_latency::.cpu.data 49903.061224                       # average WriteReq miss latency
system.cpu.dcache.WriteReq_avg_miss_latency::total 49903.061224                       # average WriteReq miss latency
system.cpu.dcache.WriteReq_mshr_misses::.cpu.data           98                       # number of WriteReq MSHR misses
system.cpu.dcache.WriteReq_mshr_misses::total           98                       # number of WriteReq MSHR misses
system.cpu.dcache.WriteReq_mshr_miss_latency::.cpu.data      4792500                       # number of WriteReq MSHR miss cycles
system.cpu.dcache.WriteReq_mshr_miss_latency::total      4792500                       # number of WriteReq MSHR miss cycles
system.cpu.dcache.WriteReq_mshr_miss_rate::.cpu.data     0.002109                       # mshr miss rate for WriteReq accesses
system.cpu.dcache.WriteReq_mshr_miss_rate::total     0.002109                       # mshr miss rate for WriteReq accesses
system.cpu.dcache.WriteReq_avg_mshr_miss_latency::.cpu.data 48903.061224                       # average WriteReq mshr miss latency
system.cpu.dcache.WriteReq_avg_mshr_miss_latency::total 48903.061224                       # average WriteReq mshr miss latency
system.cpu.dcache.SoftPFReq_hits::.cpu.data           29                       # number of SoftPFReq hits
system.cpu.dcache.SoftPFReq_hits::total            29                       # number of SoftPFReq hits
system.cpu.dcache.SoftPFReq_misses::.cpu.data           13                       # number of SoftPFReq misses
system.cpu.dcache.SoftPFReq_misses::total           13                       # number of SoftPFReq misses
system.cpu.dcache.SoftPFReq_accesses::.cpu.data           42                       # number of SoftPFReq accesses(hits+misses)
system.cpu.dcache.SoftPFReq_accesses::total           42                       # number of SoftPFReq accesses(hits+misses)
system.cpu.dcache.SoftPFReq_miss_rate::.cpu.data     0.309524                       # miss rate for SoftPFReq accesses
system.cpu.dcache.SoftPFReq_miss_rate::total     0.309524                       # miss rate for SoftPFReq accesses
system.cpu.dcache.SoftPFReq_mshr_misses::.cpu.data           10                       # number of SoftPFReq MSHR misses
system.cpu.dcache.SoftPFReq_mshr_misses::total           10                       # number of SoftPFReq MSHR misses
system.cpu.dcache.SoftPFReq_mshr_miss_latency::.cpu.data       517500                       # number of SoftPFReq MSHR miss cycles
system.cpu.dcache.SoftPFReq_mshr_miss_latency::total       517500                       # number of SoftPFReq MSHR miss cycles
system.cpu.dcache.SoftPFReq_mshr_miss_rate::.cpu.data     0.238095                       # mshr miss rate for SoftPFReq accesses
system.cpu.dcache.SoftPFReq_mshr_miss_rate::total     0.238095                       # mshr miss rate for SoftPFReq accesses
system.cpu.dcache.SoftPFReq_avg_mshr_miss_latency::.cpu.data        51750                       # average SoftPFReq mshr miss latency
system.cpu.dcache.SoftPFReq_avg_mshr_miss_latency::total        51750                       # average SoftPFReq mshr miss latency
system.cpu.dcache.LoadLockedReq_hits::.cpu.data         1091                       # number of LoadLockedReq hits
system.cpu.dcache.LoadLockedReq_hits::total         1091                       # number of LoadLockedReq hits
system.cpu.dcache.LoadLockedReq_misses::.cpu.data            1                       # number of LoadLockedReq misses
system.cpu.dcache.LoadLockedReq_misses::total            1                       # number of LoadLockedReq misses
system.cpu.dcache.LoadLockedReq_miss_latency::.cpu.data        46000                       # number of LoadLockedReq miss cycles
system.cpu.dcache.LoadLockedReq_miss_latency::total        46000                       # number of LoadLockedReq miss cycles
system.cpu.dcache.LoadLockedReq_accesses::.cpu.data         1092                       # number of LoadLockedReq accesses(hits+misses)
system.cpu.dcache.LoadLockedReq_accesses::total         1092                       # number of LoadLockedReq accesses(hits+misses)
system.cpu.dcache.LoadLockedReq_miss_rate::.cpu.data     0.000916                       # miss rate for LoadLockedReq accesses
system.cpu.dcache.LoadLockedReq_miss_rate::total     0.000916                       # miss rate for LoadLockedReq accesses
system.cpu.dcache.LoadLockedReq_avg_miss_latency::.cpu.data        46000                       # average LoadLockedReq miss latency
system.cpu.dcache.LoadLockedReq_avg_miss_latency::total        46000                       # average LoadLockedReq miss latency
system.cpu.dcache.LoadLockedReq_mshr_misses::.cpu.data            1                       # number of LoadLockedReq MSHR misses
system.cpu.dcache.LoadLockedReq_mshr_misses::total            1                       # number of LoadLockedReq MSHR misses
system.cpu.dcache.LoadLockedReq_mshr_miss_latency::.cpu.data        45000                       # number of LoadLockedReq MSHR miss cycles
system.cpu.dcache.LoadLockedReq_mshr_miss_latency::total        45000                       # number of LoadLockedReq MSHR miss cycles
system.cpu.dcache.LoadLockedReq_mshr_miss_rate::.cpu.data     0.000916                       # mshr miss rate for LoadLockedReq accesses
system.cpu.dcache.LoadLockedReq_mshr_miss_rate::total     0.000916                       # mshr miss rate for LoadLockedReq accesses
system.cpu.dcache.LoadLockedReq_avg_mshr_miss_latency::.cpu.data        45000                       # average LoadLockedReq mshr miss latency
system.cpu.dcache.LoadLockedReq_avg_mshr_miss_latency::total        45000                       # average LoadLockedReq mshr miss latency
system.cpu.dcache.StoreCondReq_hits::.cpu.data         1092                       # number of StoreCondReq hits
system.cpu.dcache.StoreCondReq_hits::total         1092                       # number of StoreCondReq hits
system.cpu.dcache.StoreCondReq_accesses::.cpu.data         1092                       # number of StoreCondReq accesses(hits+misses)
system.cpu.dcache.StoreCondReq_accesses::total         1092                       # number of StoreCondReq accesses(hits+misses)
system.cpu.dcache.tags.pwrStateResidencyTicks::UNDEFINED    478673000                       # Cumulative time (in ticks) in various power states
system.cpu.dcache.tags.tagsinuse           176.868340                       # Cycle average of tags in use
system.cpu.dcache.tags.total_refs              108080                       # Total number of references to valid blocks.
system.cpu.dcache.tags.sampled_refs               203                       # Sample count of references to valid blocks.
system.cpu.dcache.tags.avg_refs            532.413793                       # Average number of references to valid blocks.
system.cpu.dcache.tags.warmup_cycle            135000                       # Cycle when the warmup percentage was hit.
system.cpu.dcache.tags.occ_blocks::.cpu.data   176.868340                       # Average occupied blocks per requestor
system.cpu.dcache.tags.occ_percent::.cpu.data     0.172723                       # Average percentage of cache occupancy
system.cpu.dcache.tags.occ_percent::total     0.172723                       # Average percentage of cache occupancy
system.cpu.dcache.tags.occ_task_id_blocks::1024          201                       # Occupied blocks per task id
system.cpu.dcache.tags.age_task_id_blocks_1024::0           12                       # Occupied blocks per task id
system.cpu.dcache.tags.age_task_id_blocks_1024::2          189                       # Occupied blocks per task id
system.cpu.dcache.tags.occ_task_id_percent::1024     0.196289                       # Percentage of cache occupancy per task id
system.cpu.dcache.tags.tag_accesses            216371                       # Number of tag accesses
system.cpu.dcache.tags.data_accesses           216371                       # Number of data accesses

---------- End Simulation Statistics   ----------
