
---------- Begin Simulation Statistics ----------
final_tick                                85521534500                       # Number of ticks from beginning of simulation (restored from checkpoints and never reset)
host_inst_rate                                 508263                       # Simulator instruction rate (inst/s)
host_mem_usage                                 686776                       # Number of bytes of host memory used
host_op_rate                                   509261                       # Simulator op (including micro ops) rate (op/s)
host_seconds                                   196.75                       # Real time elapsed on the host
host_tick_rate                              434674503                       # Simulator tick rate (ticks/s)
sim_freq                                 1000000000000                       # Frequency of simulated ticks
sim_insts                                   100000001                       # Number of instructions simulated
sim_ops                                     100196363                       # Number of ops (including micro ops) simulated
sim_seconds                                  0.085522                       # Number of seconds simulated
sim_ticks                                 85521534500                       # Number of ticks simulated
system.cpu.branchPred.BTBCorrect                    0                       # Number of correct BTB predictions (this stat may not work properly.
system.cpu.branchPred.BTBHitPct             99.693364                       # BTB Hit Percentage
system.cpu.branchPred.BTBHits                 2095397                       # Number of BTB hits
system.cpu.branchPred.BTBLookups              2101842                       # Number of BTB lookups
system.cpu.branchPred.RASInCorrect                  5                       # Number of incorrect RAS predictions.
system.cpu.branchPred.condIncorrect             81341                       # Number of conditional branches incorrect
system.cpu.branchPred.condPredicted           3727691                       # Number of conditional branches predicted
system.cpu.branchPred.indirectHits                291                       # Number of indirect target hits.
system.cpu.branchPred.indirectLookups             809                       # Number of indirect predictor lookups.
system.cpu.branchPred.indirectMisses              518                       # Number of indirect misses.
system.cpu.branchPred.lookups                 4477779                       # Number of BP lookups
system.cpu.branchPred.usedRAS                   65342                       # Number of times the RAS was used to get a target.
system.cpu.branchPredindirectMispredicted          171                       # Number of mispredicted indirect branches.
system.cpu.committedInsts                   100000001                       # Number of instructions committed
system.cpu.committedOps                     100196363                       # Number of ops (including micro ops) committed
system.cpu.cpi                               1.710431                       # CPI: cycles per instruction
system.cpu.discardedOps                        190670                       # Number of ops (including micro ops) which were discarded before commit
system.cpu.dtb.accesses                             0                       # DTB accesses
system.cpu.dtb.align_faults                         0                       # Number of TLB faults due to alignment restrictions
system.cpu.dtb.domain_faults                        0                       # Number of TLB faults due to domain restrictions
system.cpu.dtb.flush_entries                        0                       # Number of entries that have been flushed from TLB
system.cpu.dtb.flush_tlb                            0                       # Number of times complete TLB was flushed
system.cpu.dtb.flush_tlb_asid                       0                       # Number of times TLB was flushed by ASID
system.cpu.dtb.flush_tlb_mva                        0                       # Number of times TLB was flushed by MVA
system.cpu.dtb.flush_tlb_mva_asid                   0                       # Number of times TLB was flushed by MVA & ASID
system.cpu.dtb.hits                                 0                       # DTB hits
system.cpu.dtb.inst_accesses                        0                       # ITB inst accesses
system.cpu.dtb.inst_hits                            0                       # ITB inst hits
system.cpu.dtb.inst_misses                          0                       # ITB inst misses
system.cpu.dtb.misses                               0                       # DTB misses
system.cpu.dtb.perms_faults                         0                       # Number of TLB faults due to permissions restrictions
system.cpu.dtb.prefetch_faults                      0                       # Number of TLB faults due to prefetch
system.cpu.dtb.read_accesses                        0                       # DTB read accesses
system.cpu.dtb.read_hits                            0                       # DTB read hits
system.cpu.dtb.read_misses                          0                       # DTB read misses
system.cpu.dtb.stage2_mmu.stage2_tlb.accesses            0                       # DTB accesses
system.cpu.dtb.stage2_mmu.stage2_tlb.align_faults            0                       # Number of TLB faults due to alignment restrictions
system.cpu.dtb.stage2_mmu.stage2_tlb.domain_faults            0                       # Number of TLB faults due to domain restrictions
system.cpu.dtb.stage2_mmu.stage2_tlb.flush_entries            0                       # Number of entries that have been flushed from TLB
system.cpu.dtb.stage2_mmu.stage2_tlb.flush_tlb            0                       # Number of times complete TLB was flushed
system.cpu.dtb.stage2_mmu.stage2_tlb.flush_tlb_asid            0                       # Number of times TLB was flushed by ASID
system.cpu.dtb.stage2_mmu.stage2_tlb.flush_tlb_mva            0                       # Number of times TLB was flushed by MVA
system.cpu.dtb.stage2_mmu.stage2_tlb.flush_tlb_mva_asid            0                       # Number of times TLB was flushed by MVA & ASID
system.cpu.dtb.stage2_mmu.stage2_tlb.hits            0                       # DTB hits
system.cpu.dtb.stage2_mmu.stage2_tlb.inst_accesses            0                       # ITB inst accesses
system.cpu.dtb.stage2_mmu.stage2_tlb.inst_hits            0                       # ITB inst hits
system.cpu.dtb.stage2_mmu.stage2_tlb.inst_misses            0                       # ITB inst misses
system.cpu.dtb.stage2_mmu.stage2_tlb.misses            0                       # DTB misses
system.cpu.dtb.stage2_mmu.stage2_tlb.perms_faults            0                       # Number of TLB faults due to permissions restrictions
system.cpu.dtb.stage2_mmu.stage2_tlb.prefetch_faults            0                       # Number of TLB faults due to prefetch
system.cpu.dtb.stage2_mmu.stage2_tlb.read_accesses            0                       # DTB read accesses
system.cpu.dtb.stage2_mmu.stage2_tlb.read_hits            0                       # DTB read hits
system.cpu.dtb.stage2_mmu.stage2_tlb.read_misses            0                       # DTB read misses
system.cpu.dtb.stage2_mmu.stage2_tlb.walker.walkRequestOrigin_Requested::Data            0                       # Table walker requests started/completed, data/inst
system.cpu.dtb.stage2_mmu.stage2_tlb.walker.walkRequestOrigin_Requested::Inst            0                       # Table walker requests started/completed, data/inst
system.cpu.dtb.stage2_mmu.stage2_tlb.walker.walkRequestOrigin_Requested::total            0                       # Table walker requests started/completed, data/inst
system.cpu.dtb.stage2_mmu.stage2_tlb.walker.walkRequestOrigin_Completed::Data            0                       # Table walker requests started/completed, data/inst
system.cpu.dtb.stage2_mmu.stage2_tlb.walker.walkRequestOrigin_Completed::Inst            0                       # Table walker requests started/completed, data/inst
system.cpu.dtb.stage2_mmu.stage2_tlb.walker.walkRequestOrigin_Completed::total            0                       # Table walker requests started/completed, data/inst
system.cpu.dtb.stage2_mmu.stage2_tlb.walker.walkRequestOrigin::total            0                       # Table walker requests started/completed, data/inst
system.cpu.dtb.stage2_mmu.stage2_tlb.walker.walks            0                       # Table walker walks requested
system.cpu.dtb.stage2_mmu.stage2_tlb.write_accesses            0                       # DTB write accesses
system.cpu.dtb.stage2_mmu.stage2_tlb.write_hits            0                       # DTB write hits
system.cpu.dtb.stage2_mmu.stage2_tlb.write_misses            0                       # DTB write misses
system.cpu.dtb.walker.walkRequestOrigin_Requested::Data            0                       # Table walker requests started/completed, data/inst
system.cpu.dtb.walker.walkRequestOrigin_Requested::Inst            0                       # Table walker requests started/completed, data/inst
system.cpu.dtb.walker.walkRequestOrigin_Requested::total            0                       # Table walker requests started/completed, data/inst
system.cpu.dtb.walker.walkRequestOrigin_Completed::Data            0                       # Table walker requests started/completed, data/inst
system.cpu.dtb.walker.walkRequestOrigin_Completed::Inst            0                       # Table walker requests started/completed, data/inst
system.cpu.dtb.walker.walkRequestOrigin_Completed::total            0                       # Table walker requests started/completed, data/inst
system.cpu.dtb.walker.walkRequestOrigin::total            0                       # Table walker requests started/completed, data/inst
system.cpu.dtb.walker.walks                         0                       # Table walker walks requested
system.cpu.dtb.write_accesses                       0                       # DTB write accesses
system.cpu.dtb.write_hits                           0                       # DTB write hits
system.cpu.dtb.write_misses                         0                       # DTB write misses
system.cpu.fetch2.amo_instructions                  0                       # Number of memory atomic instructions successfully decoded
system.cpu.fetch2.fp_instructions                   0                       # Number of floating point instructions successfully decoded
system.cpu.fetch2.int_instructions           42610161                       # Number of integer instructions successfully decoded
system.cpu.fetch2.load_instructions          43402313                       # Number of memory load instructions successfully decoded
system.cpu.fetch2.store_instructions         11001406                       # Number of memory store instructions successfully decoded
system.cpu.fetch2.vec_instructions                  0                       # Number of SIMD instructions successfully decoded
system.cpu.idleCycles                        38293358                       # Total number of cycles that the object has spent stopped
system.cpu.ipc                               0.584648                       # IPC: instructions per cycle
system.cpu.itb.accesses                             0                       # DTB accesses
system.cpu.itb.align_faults                         0                       # Number of TLB faults due to alignment restrictions
system.cpu.itb.domain_faults                        0                       # Number of TLB faults due to domain restrictions
system.cpu.itb.flush_entries                        0                       # Number of entries that have been flushed from TLB
system.cpu.itb.flush_tlb                            0                       # Number of times complete TLB was flushed
system.cpu.itb.flush_tlb_asid                       0                       # Number of times TLB was flushed by ASID
system.cpu.itb.flush_tlb_mva                        0                       # Number of times TLB was flushed by MVA
system.cpu.itb.flush_tlb_mva_asid                   0                       # Number of times TLB was flushed by MVA & ASID
system.cpu.itb.hits                                 0                       # DTB hits
system.cpu.itb.inst_accesses                        0                       # ITB inst accesses
system.cpu.itb.inst_hits                            0                       # ITB inst hits
system.cpu.itb.inst_misses                          0                       # ITB inst misses
system.cpu.itb.misses                               0                       # DTB misses
system.cpu.itb.perms_faults                         0                       # Number of TLB faults due to permissions restrictions
system.cpu.itb.prefetch_faults                      0                       # Number of TLB faults due to prefetch
system.cpu.itb.read_accesses                        0                       # DTB read accesses
system.cpu.itb.read_hits                            0                       # DTB read hits
system.cpu.itb.read_misses                          0                       # DTB read misses
system.cpu.itb.stage2_mmu.stage2_tlb.accesses            0                       # DTB accesses
system.cpu.itb.stage2_mmu.stage2_tlb.align_faults            0                       # Number of TLB faults due to alignment restrictions
system.cpu.itb.stage2_mmu.stage2_tlb.domain_faults            0                       # Number of TLB faults due to domain restrictions
system.cpu.itb.stage2_mmu.stage2_tlb.flush_entries            0                       # Number of entries that have been flushed from TLB
system.cpu.itb.stage2_mmu.stage2_tlb.flush_tlb            0                       # Number of times complete TLB was flushed
system.cpu.itb.stage2_mmu.stage2_tlb.flush_tlb_asid            0                       # Number of times TLB was flushed by ASID
system.cpu.itb.stage2_mmu.stage2_tlb.flush_tlb_mva            0                       # Number of times TLB was flushed by MVA
system.cpu.itb.stage2_mmu.stage2_tlb.flush_tlb_mva_asid            0                       # Number of times TLB was flushed by MVA & ASID
system.cpu.itb.stage2_mmu.stage2_tlb.hits            0                       # DTB hits
system.cpu.itb.stage2_mmu.stage2_tlb.inst_accesses            0                       # ITB inst accesses
system.cpu.itb.stage2_mmu.stage2_tlb.inst_hits            0                       # ITB inst hits
system.cpu.itb.stage2_mmu.stage2_tlb.inst_misses            0                       # ITB inst misses
system.cpu.itb.stage2_mmu.stage2_tlb.misses            0                       # DTB misses
system.cpu.itb.stage2_mmu.stage2_tlb.perms_faults            0                       # Number of TLB faults due to permissions restrictions
system.cpu.itb.stage2_mmu.stage2_tlb.prefetch_faults            0                       # Number of TLB faults due to prefetch
system.cpu.itb.stage2_mmu.stage2_tlb.read_accesses            0                       # DTB read accesses
system.cpu.itb.stage2_mmu.stage2_tlb.read_hits            0                       # DTB read hits
system.cpu.itb.stage2_mmu.stage2_tlb.read_misses            0                       # DTB read misses
system.cpu.itb.stage2_mmu.stage2_tlb.walker.walkRequestOrigin_Requested::Data            0                       # Table walker requests started/completed, data/inst
system.cpu.itb.stage2_mmu.stage2_tlb.walker.walkRequestOrigin_Requested::Inst            0                       # Table walker requests started/completed, data/inst
system.cpu.itb.stage2_mmu.stage2_tlb.walker.walkRequestOrigin_Requested::total            0                       # Table walker requests started/completed, data/inst
system.cpu.itb.stage2_mmu.stage2_tlb.walker.walkRequestOrigin_Completed::Data            0                       # Table walker requests started/completed, data/inst
system.cpu.itb.stage2_mmu.stage2_tlb.walker.walkRequestOrigin_Completed::Inst            0                       # Table walker requests started/completed, data/inst
system.cpu.itb.stage2_mmu.stage2_tlb.walker.walkRequestOrigin_Completed::total            0                       # Table walker requests started/completed, data/inst
system.cpu.itb.stage2_mmu.stage2_tlb.walker.walkRequestOrigin::total            0                       # Table walker requests started/completed, data/inst
system.cpu.itb.stage2_mmu.stage2_tlb.walker.walks            0                       # Table walker walks requested
system.cpu.itb.stage2_mmu.stage2_tlb.write_accesses            0                       # DTB write accesses
system.cpu.itb.stage2_mmu.stage2_tlb.write_hits            0                       # DTB write hits
system.cpu.itb.stage2_mmu.stage2_tlb.write_misses            0                       # DTB write misses
system.cpu.itb.walker.walkRequestOrigin_Requested::Data            0                       # Table walker requests started/completed, data/inst
system.cpu.itb.walker.walkRequestOrigin_Requested::Inst            0                       # Table walker requests started/completed, data/inst
system.cpu.itb.walker.walkRequestOrigin_Requested::total            0                       # Table walker requests started/completed, data/inst
system.cpu.itb.walker.walkRequestOrigin_Completed::Data            0                       # Table walker requests started/completed, data/inst
system.cpu.itb.walker.walkRequestOrigin_Completed::Inst            0                       # Table walker requests started/completed, data/inst
system.cpu.itb.walker.walkRequestOrigin_Completed::total            0                       # Table walker requests started/completed, data/inst
system.cpu.itb.walker.walkRequestOrigin::total            0                       # Table walker requests started/completed, data/inst
system.cpu.itb.walker.walks                         0                       # Table walker walks requested
system.cpu.itb.write_accesses                       0                       # DTB write accesses
system.cpu.itb.write_hits                           0                       # DTB write hits
system.cpu.itb.write_misses                         0                       # DTB write misses
system.cpu.numCycles                        171043069                       # number of cpu cycles simulated
system.cpu.numFetchSuspends                         0                       # Number of times Execute suspended instruction fetching
system.cpu.numWorkItemsCompleted                    0                       # number of work items this cpu completed
system.cpu.numWorkItemsStarted                      0                       # number of work items this cpu started
system.cpu.op_class_0::No_OpClass                   0      0.00%      0.00% # Class of committed instruction
system.cpu.op_class_0::IntAlu                46531400     46.44%     46.44% # Class of committed instruction
system.cpu.op_class_0::IntMult                  20720      0.02%     46.46% # Class of committed instruction
system.cpu.op_class_0::IntDiv                       0      0.00%     46.46% # Class of committed instruction
system.cpu.op_class_0::FloatAdd                     0      0.00%     46.46% # Class of committed instruction
system.cpu.op_class_0::FloatCmp                     0      0.00%     46.46% # Class of committed instruction
system.cpu.op_class_0::FloatCvt                     0      0.00%     46.46% # Class of committed instruction
system.cpu.op_class_0::FloatMult                    0      0.00%     46.46% # Class of committed instruction
system.cpu.op_class_0::FloatMultAcc                 0      0.00%     46.46% # Class of committed instruction
system.cpu.op_class_0::FloatDiv                     0      0.00%     46.46% # Class of committed instruction
system.cpu.op_class_0::FloatMisc                    0      0.00%     46.46% # Class of committed instruction
system.cpu.op_class_0::FloatSqrt                    0      0.00%     46.46% # Class of committed instruction
system.cpu.op_class_0::SimdAdd                      0      0.00%     46.46% # Class of committed instruction
system.cpu.op_class_0::SimdAddAcc                   0      0.00%     46.46% # Class of committed instruction
system.cpu.op_class_0::SimdAlu                      0      0.00%     46.46% # Class of committed instruction
system.cpu.op_class_0::SimdCmp                      0      0.00%     46.46% # Class of committed instruction
system.cpu.op_class_0::SimdCvt                      0      0.00%     46.46% # Class of committed instruction
system.cpu.op_class_0::SimdMisc                     0      0.00%     46.46% # Class of committed instruction
system.cpu.op_class_0::SimdMult                     0      0.00%     46.46% # Class of committed instruction
system.cpu.op_class_0::SimdMultAcc                  0      0.00%     46.46% # Class of committed instruction
system.cpu.op_class_0::SimdShift                    0      0.00%     46.46% # Class of committed instruction
system.cpu.op_class_0::SimdShiftAcc                 0      0.00%     46.46% # Class of committed instruction
system.cpu.op_class_0::SimdDiv                      0      0.00%     46.46% # Class of committed instruction
system.cpu.op_class_0::SimdSqrt                     0      0.00%     46.46% # Class of committed instruction
system.cpu.op_class_0::SimdFloatAdd                 0      0.00%     46.46% # Class of committed instruction
system.cpu.op_class_0::SimdFloatAlu                 0      0.00%     46.46% # Class of committed instruction
system.cpu.op_class_0::SimdFloatCmp                 0      0.00%     46.46% # Class of committed instruction
system.cpu.op_class_0::SimdFloatCvt                 0      0.00%     46.46% # Class of committed instruction
system.cpu.op_class_0::SimdFloatDiv                 0      0.00%     46.46% # Class of committed instruction
system.cpu.op_class_0::SimdFloatMisc               18      0.00%     46.46% # Class of committed instruction
system.cpu.op_class_0::SimdFloatMult                0      0.00%     46.46% # Class of committed instruction
system.cpu.op_class_0::SimdFloatMultAcc             0      0.00%     46.46% # Class of committed instruction
system.cpu.op_class_0::SimdFloatSqrt                0      0.00%     46.46% # Class of committed instruction
system.cpu.op_class_0::SimdReduceAdd                0      0.00%     46.46% # Class of committed instruction
system.cpu.op_class_0::SimdReduceAlu                0      0.00%     46.46% # Class of committed instruction
system.cpu.op_class_0::SimdReduceCmp                0      0.00%     46.46% # Class of committed instruction
system.cpu.op_class_0::SimdFloatReduceAdd            0      0.00%     46.46% # Class of committed instruction
system.cpu.op_class_0::SimdFloatReduceCmp            0      0.00%     46.46% # Class of committed instruction
system.cpu.op_class_0::SimdAes                      0      0.00%     46.46% # Class of committed instruction
system.cpu.op_class_0::SimdAesMix                   0      0.00%     46.46% # Class of committed instruction
system.cpu.op_class_0::SimdSha1Hash                 0      0.00%     46.46% # Class of committed instruction
system.cpu.op_class_0::SimdSha1Hash2                0      0.00%     46.46% # Class of committed instruction
system.cpu.op_class_0::SimdSha256Hash               0      0.00%     46.46% # Class of committed instruction
system.cpu.op_class_0::SimdSha256Hash2              0      0.00%     46.46% # Class of committed instruction
system.cpu.op_class_0::SimdShaSigma2                0      0.00%     46.46% # Class of committed instruction
system.cpu.op_class_0::SimdShaSigma3                0      0.00%     46.46% # Class of committed instruction
system.cpu.op_class_0::SimdPredAlu                  0      0.00%     46.46% # Class of committed instruction
system.cpu.op_class_0::MemRead               42693601     42.61%     89.07% # Class of committed instruction
system.cpu.op_class_0::MemWrite              10950624     10.93%    100.00% # Class of committed instruction
system.cpu.op_class_0::FloatMemRead                 0      0.00%    100.00% # Class of committed instruction
system.cpu.op_class_0::FloatMemWrite                0      0.00%    100.00% # Class of committed instruction
system.cpu.op_class_0::IprAccess                    0      0.00%    100.00% # Class of committed instruction
system.cpu.op_class_0::InstPrefetch                 0      0.00%    100.00% # Class of committed instruction
system.cpu.op_class_0::total                100196363                       # Class of committed instruction
system.cpu.tickCycles                       132749711                       # Number of cycles that the object actually ticked
system.cpu.workload.numSyscalls                    84                       # Number of system calls
system.membus.snoop_filter.hit_multi_requests            0                       # Number of requests hitting in the snoop filter with multiple (>1) holders of the requested data.
system.membus.snoop_filter.hit_multi_snoops            0                       # Number of snoops hitting in the snoop filter with multiple (>1) holders of the requested data.
system.membus.snoop_filter.hit_single_requests       210098                       # Number of requests hitting in the snoop filter with a single holder of the requested data.
system.membus.snoop_filter.hit_single_snoops            0                       # Number of snoops hitting in the snoop filter with a single holder of the requested data.
system.membus.snoop_filter.tot_requests        437073                       # Total number of requests made to the snoop filter.
system.membus.snoop_filter.tot_snoops               0                       # Total number of snoops made to the snoop filter.
system.tol2bus.snoop_filter.hit_multi_requests          119                       # Number of requests hitting in the snoop filter with multiple (>1) holders of the requested data.
system.tol2bus.snoop_filter.hit_multi_snoops            7                       # Number of snoops hitting in the snoop filter with multiple (>1) holders of the requested data.
system.tol2bus.snoop_filter.hit_single_requests       710741                       # Number of requests hitting in the snoop filter with a single holder of the requested data.
system.tol2bus.snoop_filter.hit_single_snoops          735                       # Number of snoops hitting in the snoop filter with a single holder of the requested data.
system.tol2bus.snoop_filter.tot_requests      1423008                       # Total number of requests made to the snoop filter.
system.tol2bus.snoop_filter.tot_snoops            742                       # Total number of snoops made to the snoop filter.
system.membus.pwrStateResidencyTicks::UNDEFINED  85521534500                       # Cumulative time (in ticks) in various power states
system.membus.trans_dist::ReadResp              81922                       # Transaction distribution
system.membus.trans_dist::WritebackDirty       140360                       # Transaction distribution
system.membus.trans_dist::CleanEvict            69731                       # Transaction distribution
system.membus.trans_dist::ReadExReq            145060                       # Transaction distribution
system.membus.trans_dist::ReadExResp           145059                       # Transaction distribution
system.membus.trans_dist::ReadSharedReq         81922                       # Transaction distribution
system.membus.pkt_count_system.l2.mem_side::system.mem_ctrls.port       664054                       # Packet count per connected master and slave (bytes)
system.membus.pkt_count::total                 664054                       # Packet count per connected master and slave (bytes)
system.membus.pkt_size_system.l2.mem_side::system.mem_ctrls.port     23509824                       # Cumulative packet size per connected master and slave (bytes)
system.membus.pkt_size::total                23509824                       # Cumulative packet size per connected master and slave (bytes)
system.membus.snoops                                0                       # Total snoops (count)
system.membus.snoopTraffic                          0                       # Total snoop traffic (bytes)
system.membus.snoop_fanout::samples            226982                       # Request fanout histogram
system.membus.snoop_fanout::mean                    0                       # Request fanout histogram
system.membus.snoop_fanout::stdev                   0                       # Request fanout histogram
system.membus.snoop_fanout::underflows              0      0.00%      0.00% # Request fanout histogram
system.membus.snoop_fanout::0                  226982    100.00%    100.00% # Request fanout histogram
system.membus.snoop_fanout::1                       0      0.00%    100.00% # Request fanout histogram
system.membus.snoop_fanout::overflows               0      0.00%    100.00% # Request fanout histogram
system.membus.snoop_fanout::min_value               0                       # Request fanout histogram
system.membus.snoop_fanout::max_value               0                       # Request fanout histogram
system.membus.snoop_fanout::total              226982                       # Request fanout histogram
system.membus.respLayer1.occupancy         1226313000                       # Layer occupancy (ticks)
system.membus.respLayer1.utilization              1.4                       # Layer utilization (%)
system.membus.reqLayer0.occupancy          1045129000                       # Layer occupancy (ticks)
system.membus.reqLayer0.utilization               1.2                       # Layer utilization (%)
system.tol2bus.pwrStateResidencyTicks::UNDEFINED  85521534500                       # Cumulative time (in ticks) in various power states
system.tol2bus.trans_dist::ReadResp            425923                       # Transaction distribution
system.tol2bus.trans_dist::WritebackDirty       766549                       # Transaction distribution
system.tol2bus.trans_dist::WritebackClean          171                       # Transaction distribution
system.tol2bus.trans_dist::CleanEvict          154832                       # Transaction distribution
system.tol2bus.trans_dist::ReadExReq           286346                       # Transaction distribution
system.tol2bus.trans_dist::ReadExResp          286345                       # Transaction distribution
system.tol2bus.trans_dist::ReadCleanReq           676                       # Transaction distribution
system.tol2bus.trans_dist::ReadSharedReq       425247                       # Transaction distribution
system.tol2bus.pkt_count_system.cpu.icache.mem_side::system.l2.cpu_side         1523                       # Packet count per connected master and slave (bytes)
system.tol2bus.pkt_count_system.cpu.dcache.mem_side::system.l2.cpu_side      2133753                       # Packet count per connected master and slave (bytes)
system.tol2bus.pkt_count::total               2135276                       # Packet count per connected master and slave (bytes)
system.tol2bus.pkt_size_system.cpu.icache.mem_side::system.l2.cpu_side        54208                       # Cumulative packet size per connected master and slave (bytes)
system.tol2bus.pkt_size_system.cpu.dcache.mem_side::system.l2.cpu_side     85617984                       # Cumulative packet size per connected master and slave (bytes)
system.tol2bus.pkt_size::total               85672192                       # Cumulative packet size per connected master and slave (bytes)
system.tol2bus.snoops                          210813                       # Total snoops (count)
system.tol2bus.snoopTraffic                   8983040                       # Total snoop traffic (bytes)
system.tol2bus.snoop_fanout::samples           923082                       # Request fanout histogram
system.tol2bus.snoop_fanout::mean            0.000942                       # Request fanout histogram
system.tol2bus.snoop_fanout::stdev           0.030932                       # Request fanout histogram
system.tol2bus.snoop_fanout::underflows             0      0.00%      0.00% # Request fanout histogram
system.tol2bus.snoop_fanout::0                 922219     99.91%     99.91% # Request fanout histogram
system.tol2bus.snoop_fanout::1                    856      0.09%    100.00% # Request fanout histogram
system.tol2bus.snoop_fanout::2                      7      0.00%    100.00% # Request fanout histogram
system.tol2bus.snoop_fanout::overflows              0      0.00%    100.00% # Request fanout histogram
system.tol2bus.snoop_fanout::min_value              0                       # Request fanout histogram
system.tol2bus.snoop_fanout::max_value              2                       # Request fanout histogram
system.tol2bus.snoop_fanout::total             923082                       # Request fanout histogram
system.tol2bus.reqLayer0.occupancy         1337864000                       # Layer occupancy (ticks)
system.tol2bus.reqLayer0.utilization              1.6                       # Layer utilization (%)
system.tol2bus.respLayer1.occupancy        1067389996                       # Layer occupancy (ticks)
system.tol2bus.respLayer1.utilization             1.2                       # Layer utilization (%)
system.tol2bus.respLayer0.occupancy           1014000                       # Layer occupancy (ticks)
system.tol2bus.respLayer0.utilization             0.0                       # Layer utilization (%)
system.voltage_domain.voltage                       1                       # Voltage in Volts
system.clk_domain.clock                          1000                       # Clock period in ticks
system.l2.pwrStateResidencyTicks::UNDEFINED  85521534500                       # Cumulative time (in ticks) in various power states
system.l2.demand_hits::.cpu.inst                   17                       # number of demand (read+write) hits
system.l2.demand_hits::.cpu.data               485266                       # number of demand (read+write) hits
system.l2.demand_hits::total                   485283                       # number of demand (read+write) hits
system.l2.overall_hits::.cpu.inst                  17                       # number of overall hits
system.l2.overall_hits::.cpu.data              485266                       # number of overall hits
system.l2.overall_hits::total                  485283                       # number of overall hits
system.l2.demand_misses::.cpu.inst                659                       # number of demand (read+write) misses
system.l2.demand_misses::.cpu.data             226327                       # number of demand (read+write) misses
system.l2.demand_misses::total                 226986                       # number of demand (read+write) misses
system.l2.overall_misses::.cpu.inst               659                       # number of overall misses
system.l2.overall_misses::.cpu.data            226327                       # number of overall misses
system.l2.overall_misses::total                226986                       # number of overall misses
system.l2.demand_miss_latency::.cpu.inst     52246000                       # number of demand (read+write) miss cycles
system.l2.demand_miss_latency::.cpu.data  19375961000                       # number of demand (read+write) miss cycles
system.l2.demand_miss_latency::total      19428207000                       # number of demand (read+write) miss cycles
system.l2.overall_miss_latency::.cpu.inst     52246000                       # number of overall miss cycles
system.l2.overall_miss_latency::.cpu.data  19375961000                       # number of overall miss cycles
system.l2.overall_miss_latency::total     19428207000                       # number of overall miss cycles
system.l2.demand_accesses::.cpu.inst              676                       # number of demand (read+write) accesses
system.l2.demand_accesses::.cpu.data           711593                       # number of demand (read+write) accesses
system.l2.demand_accesses::total               712269                       # number of demand (read+write) accesses
system.l2.overall_accesses::.cpu.inst             676                       # number of overall (read+write) accesses
system.l2.overall_accesses::.cpu.data          711593                       # number of overall (read+write) accesses
system.l2.overall_accesses::total              712269                       # number of overall (read+write) accesses
system.l2.demand_miss_rate::.cpu.inst        0.974852                       # miss rate for demand accesses
system.l2.demand_miss_rate::.cpu.data        0.318057                       # miss rate for demand accesses
system.l2.demand_miss_rate::total            0.318680                       # miss rate for demand accesses
system.l2.overall_miss_rate::.cpu.inst       0.974852                       # miss rate for overall accesses
system.l2.overall_miss_rate::.cpu.data       0.318057                       # miss rate for overall accesses
system.l2.overall_miss_rate::total           0.318680                       # miss rate for overall accesses
system.l2.demand_avg_miss_latency::.cpu.inst 79280.728376                       # average overall miss latency
system.l2.demand_avg_miss_latency::.cpu.data 85610.470691                       # average overall miss latency
system.l2.demand_avg_miss_latency::total 85592.093786                       # average overall miss latency
system.l2.overall_avg_miss_latency::.cpu.inst 79280.728376                       # average overall miss latency
system.l2.overall_avg_miss_latency::.cpu.data 85610.470691                       # average overall miss latency
system.l2.overall_avg_miss_latency::total 85592.093786                       # average overall miss latency
system.l2.blocked_cycles::no_mshrs                  0                       # number of cycles access was blocked
system.l2.blocked_cycles::no_targets                0                       # number of cycles access was blocked
system.l2.blocked::no_mshrs                         0                       # number of cycles access was blocked
system.l2.blocked::no_targets                       0                       # number of cycles access was blocked
system.l2.avg_blocked_cycles::no_mshrs            nan                       # average number of cycles each access was blocked
system.l2.avg_blocked_cycles::no_targets          nan                       # average number of cycles each access was blocked
system.l2.writebacks::.writebacks              140360                       # number of writebacks
system.l2.writebacks::total                    140360                       # number of writebacks
system.l2.demand_mshr_hits::.cpu.data               4                       # number of demand (read+write) MSHR hits
system.l2.demand_mshr_hits::total                   4                       # number of demand (read+write) MSHR hits
system.l2.overall_mshr_hits::.cpu.data              4                       # number of overall MSHR hits
system.l2.overall_mshr_hits::total                  4                       # number of overall MSHR hits
system.l2.demand_mshr_misses::.cpu.inst           659                       # number of demand (read+write) MSHR misses
system.l2.demand_mshr_misses::.cpu.data        226323                       # number of demand (read+write) MSHR misses
system.l2.demand_mshr_misses::total            226982                       # number of demand (read+write) MSHR misses
system.l2.overall_mshr_misses::.cpu.inst          659                       # number of overall MSHR misses
system.l2.overall_mshr_misses::.cpu.data       226323                       # number of overall MSHR misses
system.l2.overall_mshr_misses::total           226982                       # number of overall MSHR misses
system.l2.demand_mshr_miss_latency::.cpu.inst     45656000                       # number of demand (read+write) MSHR miss cycles
system.l2.demand_mshr_miss_latency::.cpu.data  17112497000                       # number of demand (read+write) MSHR miss cycles
system.l2.demand_mshr_miss_latency::total  17158153000                       # number of demand (read+write) MSHR miss cycles
system.l2.overall_mshr_miss_latency::.cpu.inst     45656000                       # number of overall MSHR miss cycles
system.l2.overall_mshr_miss_latency::.cpu.data  17112497000                       # number of overall MSHR miss cycles
system.l2.overall_mshr_miss_latency::total  17158153000                       # number of overall MSHR miss cycles
system.l2.demand_mshr_miss_rate::.cpu.inst     0.974852                       # mshr miss rate for demand accesses
system.l2.demand_mshr_miss_rate::.cpu.data     0.318051                       # mshr miss rate for demand accesses
system.l2.demand_mshr_miss_rate::total       0.318675                       # mshr miss rate for demand accesses
system.l2.overall_mshr_miss_rate::.cpu.inst     0.974852                       # mshr miss rate for overall accesses
system.l2.overall_mshr_miss_rate::.cpu.data     0.318051                       # mshr miss rate for overall accesses
system.l2.overall_mshr_miss_rate::total      0.318675                       # mshr miss rate for overall accesses
system.l2.demand_avg_mshr_miss_latency::.cpu.inst 69280.728376                       # average overall mshr miss latency
system.l2.demand_avg_mshr_miss_latency::.cpu.data 75610.949837                       # average overall mshr miss latency
system.l2.demand_avg_mshr_miss_latency::total 75592.571217                       # average overall mshr miss latency
system.l2.overall_avg_mshr_miss_latency::.cpu.inst 69280.728376                       # average overall mshr miss latency
system.l2.overall_avg_mshr_miss_latency::.cpu.data 75610.949837                       # average overall mshr miss latency
system.l2.overall_avg_mshr_miss_latency::total 75592.571217                       # average overall mshr miss latency
system.l2.replacements                         210813                       # number of replacements
system.l2.WritebackDirty_hits::.writebacks       626189                       # number of WritebackDirty hits
system.l2.WritebackDirty_hits::total           626189                       # number of WritebackDirty hits
system.l2.WritebackDirty_accesses::.writebacks       626189                       # number of WritebackDirty accesses(hits+misses)
system.l2.WritebackDirty_accesses::total       626189                       # number of WritebackDirty accesses(hits+misses)
system.l2.WritebackClean_hits::.writebacks          169                       # number of WritebackClean hits
system.l2.WritebackClean_hits::total              169                       # number of WritebackClean hits
system.l2.WritebackClean_accesses::.writebacks          169                       # number of WritebackClean accesses(hits+misses)
system.l2.WritebackClean_accesses::total          169                       # number of WritebackClean accesses(hits+misses)
system.l2.CleanEvict_mshr_misses::.writebacks           20                       # number of CleanEvict MSHR misses
system.l2.CleanEvict_mshr_misses::total            20                       # number of CleanEvict MSHR misses
system.l2.CleanEvict_mshr_miss_rate::.writebacks          inf                       # mshr miss rate for CleanEvict accesses
system.l2.CleanEvict_mshr_miss_rate::total          inf                       # mshr miss rate for CleanEvict accesses
system.l2.ReadExReq_hits::.cpu.data            141286                       # number of ReadExReq hits
system.l2.ReadExReq_hits::total                141286                       # number of ReadExReq hits
system.l2.ReadExReq_misses::.cpu.data          145060                       # number of ReadExReq misses
system.l2.ReadExReq_misses::total              145060                       # number of ReadExReq misses
system.l2.ReadExReq_miss_latency::.cpu.data  12768782500                       # number of ReadExReq miss cycles
system.l2.ReadExReq_miss_latency::total   12768782500                       # number of ReadExReq miss cycles
system.l2.ReadExReq_accesses::.cpu.data        286346                       # number of ReadExReq accesses(hits+misses)
system.l2.ReadExReq_accesses::total            286346                       # number of ReadExReq accesses(hits+misses)
system.l2.ReadExReq_miss_rate::.cpu.data     0.506590                       # miss rate for ReadExReq accesses
system.l2.ReadExReq_miss_rate::total         0.506590                       # miss rate for ReadExReq accesses
system.l2.ReadExReq_avg_miss_latency::.cpu.data 88024.145181                       # average ReadExReq miss latency
system.l2.ReadExReq_avg_miss_latency::total 88024.145181                       # average ReadExReq miss latency
system.l2.ReadExReq_mshr_misses::.cpu.data       145060                       # number of ReadExReq MSHR misses
system.l2.ReadExReq_mshr_misses::total         145060                       # number of ReadExReq MSHR misses
system.l2.ReadExReq_mshr_miss_latency::.cpu.data  11318192500                       # number of ReadExReq MSHR miss cycles
system.l2.ReadExReq_mshr_miss_latency::total  11318192500                       # number of ReadExReq MSHR miss cycles
system.l2.ReadExReq_mshr_miss_rate::.cpu.data     0.506590                       # mshr miss rate for ReadExReq accesses
system.l2.ReadExReq_mshr_miss_rate::total     0.506590                       # mshr miss rate for ReadExReq accesses
system.l2.ReadExReq_avg_mshr_miss_latency::.cpu.data 78024.214118                       # average ReadExReq mshr miss latency
system.l2.ReadExReq_avg_mshr_miss_latency::total 78024.214118                       # average ReadExReq mshr miss latency
system.l2.ReadCleanReq_hits::.cpu.inst             17                       # number of ReadCleanReq hits
system.l2.ReadCleanReq_hits::total                 17                       # number of ReadCleanReq hits
system.l2.ReadCleanReq_misses::.cpu.inst          659                       # number of ReadCleanReq misses
system.l2.ReadCleanReq_misses::total              659                       # number of ReadCleanReq misses
system.l2.ReadCleanReq_miss_latency::.cpu.inst     52246000                       # number of ReadCleanReq miss cycles
system.l2.ReadCleanReq_miss_latency::total     52246000                       # number of ReadCleanReq miss cycles
system.l2.ReadCleanReq_accesses::.cpu.inst          676                       # number of ReadCleanReq accesses(hits+misses)
system.l2.ReadCleanReq_accesses::total            676                       # number of ReadCleanReq accesses(hits+misses)
system.l2.ReadCleanReq_miss_rate::.cpu.inst     0.974852                       # miss rate for ReadCleanReq accesses
system.l2.ReadCleanReq_miss_rate::total      0.974852                       # miss rate for ReadCleanReq accesses
system.l2.ReadCleanReq_avg_miss_latency::.cpu.inst 79280.728376                       # average ReadCleanReq miss latency
system.l2.ReadCleanReq_avg_miss_latency::total 79280.728376                       # average ReadCleanReq miss latency
system.l2.ReadCleanReq_mshr_misses::.cpu.inst          659                       # number of ReadCleanReq MSHR misses
system.l2.ReadCleanReq_mshr_misses::total          659                       # number of ReadCleanReq MSHR misses
system.l2.ReadCleanReq_mshr_miss_latency::.cpu.inst     45656000                       # number of ReadCleanReq MSHR miss cycles
system.l2.ReadCleanReq_mshr_miss_latency::total     45656000                       # number of ReadCleanReq MSHR miss cycles
system.l2.ReadCleanReq_mshr_miss_rate::.cpu.inst     0.974852                       # mshr miss rate for ReadCleanReq accesses
system.l2.ReadCleanReq_mshr_miss_rate::total     0.974852                       # mshr miss rate for ReadCleanReq accesses
system.l2.ReadCleanReq_avg_mshr_miss_latency::.cpu.inst 69280.728376                       # average ReadCleanReq mshr miss latency
system.l2.ReadCleanReq_avg_mshr_miss_latency::total 69280.728376                       # average ReadCleanReq mshr miss latency
system.l2.ReadSharedReq_hits::.cpu.data        343980                       # number of ReadSharedReq hits
system.l2.ReadSharedReq_hits::total            343980                       # number of ReadSharedReq hits
system.l2.ReadSharedReq_misses::.cpu.data        81267                       # number of ReadSharedReq misses
system.l2.ReadSharedReq_misses::total           81267                       # number of ReadSharedReq misses
system.l2.ReadSharedReq_miss_latency::.cpu.data   6607178500                       # number of ReadSharedReq miss cycles
system.l2.ReadSharedReq_miss_latency::total   6607178500                       # number of ReadSharedReq miss cycles
system.l2.ReadSharedReq_accesses::.cpu.data       425247                       # number of ReadSharedReq accesses(hits+misses)
system.l2.ReadSharedReq_accesses::total        425247                       # number of ReadSharedReq accesses(hits+misses)
system.l2.ReadSharedReq_miss_rate::.cpu.data     0.191105                       # miss rate for ReadSharedReq accesses
system.l2.ReadSharedReq_miss_rate::total     0.191105                       # miss rate for ReadSharedReq accesses
system.l2.ReadSharedReq_avg_miss_latency::.cpu.data 81302.109097                       # average ReadSharedReq miss latency
system.l2.ReadSharedReq_avg_miss_latency::total 81302.109097                       # average ReadSharedReq miss latency
system.l2.ReadSharedReq_mshr_hits::.cpu.data            4                       # number of ReadSharedReq MSHR hits
system.l2.ReadSharedReq_mshr_hits::total            4                       # number of ReadSharedReq MSHR hits
system.l2.ReadSharedReq_mshr_misses::.cpu.data        81263                       # number of ReadSharedReq MSHR misses
system.l2.ReadSharedReq_mshr_misses::total        81263                       # number of ReadSharedReq MSHR misses
system.l2.ReadSharedReq_mshr_miss_latency::.cpu.data   5794304500                       # number of ReadSharedReq MSHR miss cycles
system.l2.ReadSharedReq_mshr_miss_latency::total   5794304500                       # number of ReadSharedReq MSHR miss cycles
system.l2.ReadSharedReq_mshr_miss_rate::.cpu.data     0.191096                       # mshr miss rate for ReadSharedReq accesses
system.l2.ReadSharedReq_mshr_miss_rate::total     0.191096                       # mshr miss rate for ReadSharedReq accesses
system.l2.ReadSharedReq_avg_mshr_miss_latency::.cpu.data 71303.108426                       # average ReadSharedReq mshr miss latency
system.l2.ReadSharedReq_avg_mshr_miss_latency::total 71303.108426                       # average ReadSharedReq mshr miss latency
system.l2.tags.pwrStateResidencyTicks::UNDEFINED  85521534500                       # Cumulative time (in ticks) in various power states
system.l2.tags.tagsinuse                 16035.687526                       # Cycle average of tags in use
system.l2.tags.total_refs                     1422864                       # Total number of references to valid blocks.
system.l2.tags.sampled_refs                    227197                       # Sample count of references to valid blocks.
system.l2.tags.avg_refs                      6.262688                       # Average number of references to valid blocks.
system.l2.tags.warmup_cycle                     77000                       # Cycle when the warmup percentage was hit.
system.l2.tags.occ_blocks::.writebacks      26.449337                       # Average occupied blocks per requestor
system.l2.tags.occ_blocks::.cpu.inst        51.378638                       # Average occupied blocks per requestor
system.l2.tags.occ_blocks::.cpu.data     15957.859550                       # Average occupied blocks per requestor
system.l2.tags.occ_percent::.writebacks      0.001614                       # Average percentage of cache occupancy
system.l2.tags.occ_percent::.cpu.inst        0.003136                       # Average percentage of cache occupancy
system.l2.tags.occ_percent::.cpu.data        0.973990                       # Average percentage of cache occupancy
system.l2.tags.occ_percent::total            0.978741                       # Average percentage of cache occupancy
system.l2.tags.occ_task_id_blocks::1024         16384                       # Occupied blocks per task id
system.l2.tags.age_task_id_blocks_1024::0          120                       # Occupied blocks per task id
system.l2.tags.age_task_id_blocks_1024::1          170                       # Occupied blocks per task id
system.l2.tags.age_task_id_blocks_1024::2         2572                       # Occupied blocks per task id
system.l2.tags.age_task_id_blocks_1024::3        11236                       # Occupied blocks per task id
system.l2.tags.age_task_id_blocks_1024::4         2286                       # Occupied blocks per task id
system.l2.tags.occ_task_id_percent::1024            1                       # Percentage of cache occupancy per task id
system.l2.tags.tag_accesses                  11610309                       # Number of tag accesses
system.l2.tags.data_accesses                 11610309                       # Number of data accesses
system.cpu_voltage_domain.voltage                   1                       # Voltage in Volts
system.mem_ctrls.pwrStateResidencyTicks::UNDEFINED  85521534500                       # Cumulative time (in ticks) in various power states
system.mem_ctrls.bytes_read::.cpu.inst          42176                       # Number of bytes read from this memory
system.mem_ctrls.bytes_read::.cpu.data       14484672                       # Number of bytes read from this memory
system.mem_ctrls.bytes_read::total           14526848                       # Number of bytes read from this memory
system.mem_ctrls.bytes_inst_read::.cpu.inst        42176                       # Number of instructions bytes read from this memory
system.mem_ctrls.bytes_inst_read::total         42176                       # Number of instructions bytes read from this memory
system.mem_ctrls.bytes_written::.writebacks      8983040                       # Number of bytes written to this memory
system.mem_ctrls.bytes_written::total         8983040                       # Number of bytes written to this memory
system.mem_ctrls.num_reads::.cpu.inst             659                       # Number of read requests responded to by this memory
system.mem_ctrls.num_reads::.cpu.data          226323                       # Number of read requests responded to by this memory
system.mem_ctrls.num_reads::total              226982                       # Number of read requests responded to by this memory
system.mem_ctrls.num_writes::.writebacks       140360                       # Number of write requests responded to by this memory
system.mem_ctrls.num_writes::total             140360                       # Number of write requests responded to by this memory
system.mem_ctrls.bw_read::.cpu.inst            493162                       # Total read bandwidth from this memory (bytes/s)
system.mem_ctrls.bw_read::.cpu.data         169368710                       # Total read bandwidth from this memory (bytes/s)
system.mem_ctrls.bw_read::total             169861873                       # Total read bandwidth from this memory (bytes/s)
system.mem_ctrls.bw_inst_read::.cpu.inst       493162                       # Instruction read bandwidth from this memory (bytes/s)
system.mem_ctrls.bw_inst_read::total           493162                       # Instruction read bandwidth from this memory (bytes/s)
system.mem_ctrls.bw_write::.writebacks      105038340                       # Write bandwidth from this memory (bytes/s)
system.mem_ctrls.bw_write::total            105038340                       # Write bandwidth from this memory (bytes/s)
system.mem_ctrls.bw_total::.writebacks      105038340                       # Total bandwidth to/from this memory (bytes/s)
system.mem_ctrls.bw_total::.cpu.inst           493162                       # Total bandwidth to/from this memory (bytes/s)
system.mem_ctrls.bw_total::.cpu.data        169368710                       # Total bandwidth to/from this memory (bytes/s)
system.mem_ctrls.bw_total::total            274900212                       # Total bandwidth to/from this memory (bytes/s)
system.mem_ctrls.avgPriority_.writebacks::samples    140360.00                       # Average QoS priority value for accepted requests
system.mem_ctrls.avgPriority_.cpu.inst::samples       659.00                       # Average QoS priority value for accepted requests
system.mem_ctrls.avgPriority_.cpu.data::samples    226146.00                       # Average QoS priority value for accepted requests
system.mem_ctrls.priorityMinLatency      0.000000018750                       # per QoS priority minimum request to response latency (s)
system.mem_ctrls.priorityMaxLatency      0.008329842500                       # per QoS priority maximum request to response latency (s)
system.mem_ctrls.numReadWriteTurnArounds         8364                       # Number of turnarounds from READ to WRITE
system.mem_ctrls.numWriteReadTurnArounds         8364                       # Number of turnarounds from WRITE to READ
system.mem_ctrls.numStayReadState              603679                       # Number of times bus staying in READ state
system.mem_ctrls.numStayWriteState             132235                       # Number of times bus staying in WRITE state
system.mem_ctrls.readReqs                      226982                       # Number of read requests accepted
system.mem_ctrls.writeReqs                     140360                       # Number of write requests accepted
system.mem_ctrls.readBursts                    226982                       # Number of DRAM read bursts, including those serviced by the write queue
system.mem_ctrls.writeBursts                   140360                       # Number of DRAM write bursts, including those merged in the write queue
system.mem_ctrls.servicedByWrQ                    177                       # Number of DRAM read bursts serviced by the write queue
system.mem_ctrls.mergedWrBursts                     0                       # Number of DRAM write bursts merged with an existing one
system.mem_ctrls.neitherReadNorWriteReqs            0                       # Number of requests that are neither read nor write
system.mem_ctrls.perBankRdBursts::0             14517                       # Per bank write bursts
system.mem_ctrls.perBankRdBursts::1             14220                       # Per bank write bursts
system.mem_ctrls.perBankRdBursts::2             14432                       # Per bank write bursts
system.mem_ctrls.perBankRdBursts::3             14314                       # Per bank write bursts
system.mem_ctrls.perBankRdBursts::4             14463                       # Per bank write bursts
system.mem_ctrls.perBankRdBursts::5             14354                       # Per bank write bursts
system.mem_ctrls.perBankRdBursts::6             13798                       # Per bank write bursts
system.mem_ctrls.perBankRdBursts::7             14033                       # Per bank write bursts
system.mem_ctrls.perBankRdBursts::8             13951                       # Per bank write bursts
system.mem_ctrls.perBankRdBursts::9             14035                       # Per bank write bursts
system.mem_ctrls.perBankRdBursts::10            13899                       # Per bank write bursts
system.mem_ctrls.perBankRdBursts::11            13696                       # Per bank write bursts
system.mem_ctrls.perBankRdBursts::12            14201                       # Per bank write bursts
system.mem_ctrls.perBankRdBursts::13            14436                       # Per bank write bursts
system.mem_ctrls.perBankRdBursts::14            14144                       # Per bank write bursts
system.mem_ctrls.perBankRdBursts::15            14312                       # Per bank write bursts
system.mem_ctrls.perBankWrBursts::0              8905                       # Per bank write bursts
system.mem_ctrls.perBankWrBursts::1              8665                       # Per bank write bursts
system.mem_ctrls.perBankWrBursts::2              8872                       # Per bank write bursts
system.mem_ctrls.perBankWrBursts::3              8905                       # Per bank write bursts
system.mem_ctrls.perBankWrBursts::4              9195                       # Per bank write bursts
system.mem_ctrls.perBankWrBursts::5              9105                       # Per bank write bursts
system.mem_ctrls.perBankWrBursts::6              8511                       # Per bank write bursts
system.mem_ctrls.perBankWrBursts::7              8617                       # Per bank write bursts
system.mem_ctrls.perBankWrBursts::8              8521                       # Per bank write bursts
system.mem_ctrls.perBankWrBursts::9              8686                       # Per bank write bursts
system.mem_ctrls.perBankWrBursts::10             8611                       # Per bank write bursts
system.mem_ctrls.perBankWrBursts::11             8472                       # Per bank write bursts
system.mem_ctrls.perBankWrBursts::12             8777                       # Per bank write bursts
system.mem_ctrls.perBankWrBursts::13             8938                       # Per bank write bursts
system.mem_ctrls.perBankWrBursts::14             8691                       # Per bank write bursts
system.mem_ctrls.perBankWrBursts::15             8859                       # Per bank write bursts
system.mem_ctrls.avgRdQLen                       1.09                       # Average read queue length when enqueuing
system.mem_ctrls.avgWrQLen                      25.01                       # Average write queue length when enqueuing
system.mem_ctrls.totQLat                   3543877500                       # Total ticks spent queuing
system.mem_ctrls.totBusLat                 1134025000                       # Total ticks spent in databus transfers
system.mem_ctrls.totMemAccLat              7796471250                       # Total ticks spent from burst creation until serviced by the DRAM
system.mem_ctrls.avgQLat                     15625.22                       # Average queueing delay per DRAM burst
system.mem_ctrls.avgBusLat                    5000.00                       # Average bus latency per DRAM burst
system.mem_ctrls.avgMemAccLat                34375.22                       # Average memory access latency per DRAM burst
system.mem_ctrls.numRdRetry                         0                       # Number of times read queue was full causing retry
system.mem_ctrls.numWrRetry                         0                       # Number of times write queue was full causing retry
system.mem_ctrls.readRowHits                   144040                       # Number of row buffer hits during reads
system.mem_ctrls.writeRowHits                   84523                       # Number of row buffer hits during writes
system.mem_ctrls.readRowHitRate                 63.51                       # Row buffer hit rate for reads
system.mem_ctrls.writeRowHitRate                60.22                       # Row buffer hit rate for writes
system.mem_ctrls.readPktSize::0                     0                       # Read request sizes (log2)
system.mem_ctrls.readPktSize::1                     0                       # Read request sizes (log2)
system.mem_ctrls.readPktSize::2                     0                       # Read request sizes (log2)
system.mem_ctrls.readPktSize::3                     0                       # Read request sizes (log2)
system.mem_ctrls.readPktSize::4                     0                       # Read request sizes (log2)
system.mem_ctrls.readPktSize::5                     0                       # Read request sizes (log2)
system.mem_ctrls.readPktSize::6                226982                       # Read request sizes (log2)
system.mem_ctrls.writePktSize::0                    0                       # Write request sizes (log2)
system.mem_ctrls.writePktSize::1                    0                       # Write request sizes (log2)
system.mem_ctrls.writePktSize::2                    0                       # Write request sizes (log2)
system.mem_ctrls.writePktSize::3                    0                       # Write request sizes (log2)
system.mem_ctrls.writePktSize::4                    0                       # Write request sizes (log2)
system.mem_ctrls.writePktSize::5                    0                       # Write request sizes (log2)
system.mem_ctrls.writePktSize::6               140360                       # Write request sizes (log2)
system.mem_ctrls.rdQLenPdf::0                  163217                       # What read queue length does an incoming req see
system.mem_ctrls.rdQLenPdf::1                   60691                       # What read queue length does an incoming req see
system.mem_ctrls.rdQLenPdf::2                    2560                       # What read queue length does an incoming req see
system.mem_ctrls.rdQLenPdf::3                     336                       # What read queue length does an incoming req see
system.mem_ctrls.rdQLenPdf::4                       1                       # What read queue length does an incoming req see
system.mem_ctrls.rdQLenPdf::5                       0                       # What read queue length does an incoming req see
system.mem_ctrls.rdQLenPdf::6                       0                       # What read queue length does an incoming req see
system.mem_ctrls.rdQLenPdf::7                       0                       # What read queue length does an incoming req see
system.mem_ctrls.rdQLenPdf::8                       0                       # What read queue length does an incoming req see
system.mem_ctrls.rdQLenPdf::9                       0                       # What read queue length does an incoming req see
system.mem_ctrls.rdQLenPdf::10                      0                       # What read queue length does an incoming req see
system.mem_ctrls.rdQLenPdf::11                      0                       # What read queue length does an incoming req see
system.mem_ctrls.rdQLenPdf::12                      0                       # What read queue length does an incoming req see
system.mem_ctrls.rdQLenPdf::13                      0                       # What read queue length does an incoming req see
system.mem_ctrls.rdQLenPdf::14                      0                       # What read queue length does an incoming req see
system.mem_ctrls.rdQLenPdf::15                      0                       # What read queue length does an incoming req see
system.mem_ctrls.rdQLenPdf::16                      0                       # What read queue length does an incoming req see
system.mem_ctrls.rdQLenPdf::17                      0                       # What read queue length does an incoming req see
system.mem_ctrls.rdQLenPdf::18                      0                       # What read queue length does an incoming req see
system.mem_ctrls.rdQLenPdf::19                      0                       # What read queue length does an incoming req see
system.mem_ctrls.rdQLenPdf::20                      0                       # What read queue length does an incoming req see
system.mem_ctrls.rdQLenPdf::21                      0                       # What read queue length does an incoming req see
system.mem_ctrls.rdQLenPdf::22                      0                       # What read queue length does an incoming req see
system.mem_ctrls.rdQLenPdf::23                      0                       # What read queue length does an incoming req see
system.mem_ctrls.rdQLenPdf::24                      0                       # What read queue length does an incoming req see
system.mem_ctrls.rdQLenPdf::25                      0                       # What read queue length does an incoming req see
system.mem_ctrls.rdQLenPdf::26                      0                       # What read queue length does an incoming req see
system.mem_ctrls.rdQLenPdf::27                      0                       # What read queue length does an incoming req see
system.mem_ctrls.rdQLenPdf::28                      0                       # What read queue length does an incoming req see
system.mem_ctrls.rdQLenPdf::29                      0                       # What read queue length does an incoming req see
system.mem_ctrls.rdQLenPdf::30                      0                       # What read queue length does an incoming req see
system.mem_ctrls.rdQLenPdf::31                      0                       # What read queue length does an incoming req see
system.mem_ctrls.wrQLenPdf::0                       1                       # What write queue length does an incoming req see
system.mem_ctrls.wrQLenPdf::1                       1                       # What write queue length does an incoming req see
system.mem_ctrls.wrQLenPdf::2                       1                       # What write queue length does an incoming req see
system.mem_ctrls.wrQLenPdf::3                       1                       # What write queue length does an incoming req see
system.mem_ctrls.wrQLenPdf::4                       1                       # What write queue length does an incoming req see
system.mem_ctrls.wrQLenPdf::5                       1                       # What write queue length does an incoming req see
system.mem_ctrls.wrQLenPdf::6                       1                       # What write queue length does an incoming req see
system.mem_ctrls.wrQLenPdf::7                       1                       # What write queue length does an incoming req see
system.mem_ctrls.wrQLenPdf::8                       1                       # What write queue length does an incoming req see
system.mem_ctrls.wrQLenPdf::9                       1                       # What write queue length does an incoming req see
system.mem_ctrls.wrQLenPdf::10                      1                       # What write queue length does an incoming req see
system.mem_ctrls.wrQLenPdf::11                      1                       # What write queue length does an incoming req see
system.mem_ctrls.wrQLenPdf::12                      1                       # What write queue length does an incoming req see
system.mem_ctrls.wrQLenPdf::13                      1                       # What write queue length does an incoming req see
system.mem_ctrls.wrQLenPdf::14                      1                       # What write queue length does an incoming req see
system.mem_ctrls.wrQLenPdf::15                   3084                       # What write queue length does an incoming req see
system.mem_ctrls.wrQLenPdf::16                   3140                       # What write queue length does an incoming req see
system.mem_ctrls.wrQLenPdf::17                   6812                       # What write queue length does an incoming req see
system.mem_ctrls.wrQLenPdf::18                   8437                       # What write queue length does an incoming req see
system.mem_ctrls.wrQLenPdf::19                   8407                       # What write queue length does an incoming req see
system.mem_ctrls.wrQLenPdf::20                   8435                       # What write queue length does an incoming req see
system.mem_ctrls.wrQLenPdf::21                   8404                       # What write queue length does an incoming req see
system.mem_ctrls.wrQLenPdf::22                   8452                       # What write queue length does an incoming req see
system.mem_ctrls.wrQLenPdf::23                   8426                       # What write queue length does an incoming req see
system.mem_ctrls.wrQLenPdf::24                   8462                       # What write queue length does an incoming req see
system.mem_ctrls.wrQLenPdf::25                   9037                       # What write queue length does an incoming req see
system.mem_ctrls.wrQLenPdf::26                   8462                       # What write queue length does an incoming req see
system.mem_ctrls.wrQLenPdf::27                   8419                       # What write queue length does an incoming req see
system.mem_ctrls.wrQLenPdf::28                   8846                       # What write queue length does an incoming req see
system.mem_ctrls.wrQLenPdf::29                   8415                       # What write queue length does an incoming req see
system.mem_ctrls.wrQLenPdf::30                   8370                       # What write queue length does an incoming req see
system.mem_ctrls.wrQLenPdf::31                   8369                       # What write queue length does an incoming req see
system.mem_ctrls.wrQLenPdf::32                   8366                       # What write queue length does an incoming req see
system.mem_ctrls.wrQLenPdf::33                      2                       # What write queue length does an incoming req see
system.mem_ctrls.wrQLenPdf::34                      0                       # What write queue length does an incoming req see
system.mem_ctrls.wrQLenPdf::35                      0                       # What write queue length does an incoming req see
system.mem_ctrls.wrQLenPdf::36                      0                       # What write queue length does an incoming req see
system.mem_ctrls.wrQLenPdf::37                      0                       # What write queue length does an incoming req see
system.mem_ctrls.wrQLenPdf::38                      0                       # What write queue length does an incoming req see
system.mem_ctrls.wrQLenPdf::39                      0                       # What write queue length does an incoming req see
system.mem_ctrls.wrQLenPdf::40                      0                       # What write queue length does an incoming req see
system.mem_ctrls.wrQLenPdf::41                      0                       # What write queue length does an incoming req see
system.mem_ctrls.wrQLenPdf::42                      0                       # What write queue length does an incoming req see
system.mem_ctrls.wrQLenPdf::43                      0                       # What write queue length does an incoming req see
system.mem_ctrls.wrQLenPdf::44                      0                       # What write queue length does an incoming req see
system.mem_ctrls.wrQLenPdf::45                      0                       # What write queue length does an incoming req see
system.mem_ctrls.wrQLenPdf::46                      0                       # What write queue length does an incoming req see
system.mem_ctrls.wrQLenPdf::47                      0                       # What write queue length does an incoming req see
system.mem_ctrls.wrQLenPdf::48                      0                       # What write queue length does an incoming req see
system.mem_ctrls.wrQLenPdf::49                      0                       # What write queue length does an incoming req see
system.mem_ctrls.wrQLenPdf::50                      0                       # What write queue length does an incoming req see
system.mem_ctrls.wrQLenPdf::51                      0                       # What write queue length does an incoming req see
system.mem_ctrls.wrQLenPdf::52                      0                       # What write queue length does an incoming req see
system.mem_ctrls.wrQLenPdf::53                      0                       # What write queue length does an incoming req see
system.mem_ctrls.wrQLenPdf::54                      0                       # What write queue length does an incoming req see
system.mem_ctrls.wrQLenPdf::55                      0                       # What write queue length does an incoming req see
system.mem_ctrls.wrQLenPdf::56                      0                       # What write queue length does an incoming req see
system.mem_ctrls.wrQLenPdf::57                      0                       # What write queue length does an incoming req see
system.mem_ctrls.wrQLenPdf::58                      0                       # What write queue length does an incoming req see
system.mem_ctrls.wrQLenPdf::59                      0                       # What write queue length does an incoming req see
system.mem_ctrls.wrQLenPdf::60                      0                       # What write queue length does an incoming req see
system.mem_ctrls.wrQLenPdf::61                      0                       # What write queue length does an incoming req see
system.mem_ctrls.wrQLenPdf::62                      0                       # What write queue length does an incoming req see
system.mem_ctrls.wrQLenPdf::63                      0                       # What write queue length does an incoming req see
system.mem_ctrls.bytesPerActivate::samples       138559                       # Bytes accessed per row activation
system.mem_ctrls.bytesPerActivate::mean    169.571201                       # Bytes accessed per row activation
system.mem_ctrls.bytesPerActivate::gmean   102.683394                       # Bytes accessed per row activation
system.mem_ctrls.bytesPerActivate::stdev   237.450874                       # Bytes accessed per row activation
system.mem_ctrls.bytesPerActivate::0-127        96341     69.53%     69.53% # Bytes accessed per row activation
system.mem_ctrls.bytesPerActivate::128-255        19200     13.86%     83.39% # Bytes accessed per row activation
system.mem_ctrls.bytesPerActivate::256-383         3624      2.62%     86.00% # Bytes accessed per row activation
system.mem_ctrls.bytesPerActivate::384-511         1623      1.17%     87.17% # Bytes accessed per row activation
system.mem_ctrls.bytesPerActivate::512-639         9588      6.92%     94.09% # Bytes accessed per row activation
system.mem_ctrls.bytesPerActivate::640-767          738      0.53%     94.63% # Bytes accessed per row activation
system.mem_ctrls.bytesPerActivate::768-895          448      0.32%     94.95% # Bytes accessed per row activation
system.mem_ctrls.bytesPerActivate::896-1023          498      0.36%     95.31% # Bytes accessed per row activation
system.mem_ctrls.bytesPerActivate::1024-1151         6499      4.69%    100.00% # Bytes accessed per row activation
system.mem_ctrls.bytesPerActivate::total       138559                       # Bytes accessed per row activation
system.mem_ctrls.rdPerTurnAround::samples         8364                       # Reads before turning the bus around for writes
system.mem_ctrls.rdPerTurnAround::mean      27.114658                       # Reads before turning the bus around for writes
system.mem_ctrls.rdPerTurnAround::gmean     23.024376                       # Reads before turning the bus around for writes
system.mem_ctrls.rdPerTurnAround::stdev     49.100160                       # Reads before turning the bus around for writes
system.mem_ctrls.rdPerTurnAround::0-127          8265     98.82%     98.82% # Reads before turning the bus around for writes
system.mem_ctrls.rdPerTurnAround::128-255           25      0.30%     99.12% # Reads before turning the bus around for writes
system.mem_ctrls.rdPerTurnAround::256-383           63      0.75%     99.87% # Reads before turning the bus around for writes
system.mem_ctrls.rdPerTurnAround::384-511            4      0.05%     99.92% # Reads before turning the bus around for writes
system.mem_ctrls.rdPerTurnAround::640-767            1      0.01%     99.93% # Reads before turning the bus around for writes
[...]
system.cpu.icache.ReadReq_avg_miss_latency::total 80078.402367                       # average ReadReq miss latency
system.cpu.icache.ReadReq_mshr_misses::.cpu.inst          676                       # number of ReadReq MSHR misses
system.cpu.icache.ReadReq_mshr_misses::total          676                       # number of ReadReq MSHR misses
system.cpu.icache.ReadReq_mshr_miss_latency::.cpu.inst     53457000                       # number of ReadReq MSHR miss cycles
system.cpu.icache.ReadReq_mshr_miss_latency::total     53457000                       # number of ReadReq MSHR miss cycles
system.cpu.icache.ReadReq_mshr_miss_rate::.cpu.inst     0.000070                       # mshr miss rate for ReadReq accesses
system.cpu.icache.ReadReq_mshr_miss_rate::total     0.000070                       # mshr miss rate for ReadReq accesses
system.cpu.icache.ReadReq_avg_mshr_miss_latency::.cpu.inst 79078.402367                       # average ReadReq mshr miss latency
system.cpu.icache.ReadReq_avg_mshr_miss_latency::total 79078.402367                       # average ReadReq mshr miss latency
system.cpu.icache.tags.pwrStateResidencyTicks::UNDEFINED  85521534500                       # Cumulative time (in ticks) in various power states
system.cpu.icache.tags.tagsinuse           472.035947                       # Cycle average of tags in use
system.cpu.icache.tags.total_refs             9663508                       # Total number of references to valid blocks.
system.cpu.icache.tags.sampled_refs               676                       # Sample count of references to valid blocks.
system.cpu.icache.tags.avg_refs          14295.130178                       # Average number of references to valid blocks.
system.cpu.icache.tags.warmup_cycle             87500                       # Cycle when the warmup percentage was hit.
system.cpu.icache.tags.occ_blocks::.cpu.inst   472.035947                       # Average occupied blocks per requestor
system.cpu.icache.tags.occ_percent::.cpu.inst     0.921945                       # Average percentage of cache occupancy
system.cpu.icache.tags.occ_percent::total     0.921945                       # Average percentage of cache occupancy
system.cpu.icache.tags.occ_task_id_blocks::1024          505                       # Occupied blocks per task id
system.cpu.icache.tags.age_task_id_blocks_1024::3          106                       # Occupied blocks per task id
system.cpu.icache.tags.age_task_id_blocks_1024::4          399                       # Occupied blocks per task id
system.cpu.icache.tags.occ_task_id_percent::1024     0.986328                       # Percentage of cache occupancy per task id
system.cpu.icache.tags.tag_accesses          77308740                       # Number of tag accesses
system.cpu.icache.tags.data_accesses         77308740                       # Number of data accesses
system.cpu.dtb.walker.pwrStateResidencyTicks::UNDEFINED  85521534500                       # Cumulative time (in ticks) in various power states
system.cpu.dtb.stage2_mmu.stage2_tlb.walker.pwrStateResidencyTicks::UNDEFINED  85521534500                       # Cumulative time (in ticks) in various power states
system.cpu.dcache.pwrStateResidencyTicks::UNDEFINED  85521534500                       # Cumulative time (in ticks) in various power states
system.cpu.dcache.demand_hits::.cpu.data     51308631                       # number of demand (read+write) hits
system.cpu.dcache.demand_hits::total         51308631                       # number of demand (read+write) hits
system.cpu.dcache.overall_hits::.cpu.data     51309137                       # number of overall hits
system.cpu.dcache.overall_hits::total        51309137                       # number of overall hits
system.cpu.dcache.demand_misses::.cpu.data       762668                       # number of demand (read+write) misses
system.cpu.dcache.demand_misses::total         762668                       # number of demand (read+write) misses
system.cpu.dcache.overall_misses::.cpu.data       770580                       # number of overall misses
system.cpu.dcache.overall_misses::total        770580                       # number of overall misses
system.cpu.dcache.demand_miss_latency::.cpu.data  27246281000                       # number of demand (read+write) miss cycles
system.cpu.dcache.demand_miss_latency::total  27246281000                       # number of demand (read+write) miss cycles
system.cpu.dcache.overall_miss_latency::.cpu.data  27246281000                       # number of overall miss cycles
system.cpu.dcache.overall_miss_latency::total  27246281000                       # number of overall miss cycles
system.cpu.dcache.demand_accesses::.cpu.data     52071299                       # number of demand (read+write) accesses
system.cpu.dcache.demand_accesses::total     52071299                       # number of demand (read+write) accesses
system.cpu.dcache.overall_accesses::.cpu.data     52079717                       # number of overall (read+write) accesses
system.cpu.dcache.overall_accesses::total     52079717                       # number of overall (read+write) accesses
system.cpu.dcache.demand_miss_rate::.cpu.data     0.014647                       # miss rate for demand accesses
system.cpu.dcache.demand_miss_rate::total     0.014647                       # miss rate for demand accesses
system.cpu.dcache.overall_miss_rate::.cpu.data     0.014796                       # miss rate for overall accesses
system.cpu.dcache.overall_miss_rate::total     0.014796                       # miss rate for overall accesses
system.cpu.dcache.demand_avg_miss_latency::.cpu.data 35724.956337                       # average overall miss latency
system.cpu.dcache.demand_avg_miss_latency::total 35724.956337                       # average overall miss latency
system.cpu.dcache.overall_avg_miss_latency::.cpu.data 35358.147110                       # average overall miss latency
system.cpu.dcache.overall_avg_miss_latency::total 35358.147110                       # average overall miss latency
system.cpu.dcache.blocked_cycles::no_mshrs       194697                       # number of cycles access was blocked
system.cpu.dcache.blocked_cycles::no_targets            0                       # number of cycles access was blocked
system.cpu.dcache.blocked::no_mshrs              3425                       # number of cycles access was blocked
system.cpu.dcache.blocked::no_targets               0                       # number of cycles access was blocked
system.cpu.dcache.avg_blocked_cycles::no_mshrs    56.845839                       # average number of cycles each access was blocked
system.cpu.dcache.avg_blocked_cycles::no_targets          nan                       # average number of cycles each access was blocked
system.cpu.dcache.writebacks::.writebacks       626189                       # number of writebacks
system.cpu.dcache.writebacks::total            626189                       # number of writebacks
system.cpu.dcache.demand_mshr_hits::.cpu.data        58981                       # number of demand (read+write) MSHR hits
system.cpu.dcache.demand_mshr_hits::total        58981                       # number of demand (read+write) MSHR hits
system.cpu.dcache.overall_mshr_hits::.cpu.data        58981                       # number of overall MSHR hits
system.cpu.dcache.overall_mshr_hits::total        58981                       # number of overall MSHR hits
system.cpu.dcache.demand_mshr_misses::.cpu.data       703687                       # number of demand (read+write) MSHR misses
system.cpu.dcache.demand_mshr_misses::total       703687                       # number of demand (read+write) MSHR misses
system.cpu.dcache.overall_mshr_misses::.cpu.data       711593                       # number of overall MSHR misses
system.cpu.dcache.overall_mshr_misses::total       711593                       # number of overall MSHR misses
system.cpu.dcache.demand_mshr_miss_latency::.cpu.data  24918749500                       # number of demand (read+write) MSHR miss cycles
system.cpu.dcache.demand_mshr_miss_latency::total  24918749500                       # number of demand (read+write) MSHR miss cycles
system.cpu.dcache.overall_mshr_miss_latency::.cpu.data  25543618999                       # number of overall MSHR miss cycles
system.cpu.dcache.overall_mshr_miss_latency::total  25543618999                       # number of overall MSHR miss cycles
system.cpu.dcache.demand_mshr_miss_rate::.cpu.data     0.013514                       # mshr miss rate for demand accesses
system.cpu.dcache.demand_mshr_miss_rate::total     0.013514                       # mshr miss rate for demand accesses
system.cpu.dcache.overall_mshr_miss_rate::.cpu.data     0.013664                       # mshr miss rate for overall accesses
system.cpu.dcache.overall_mshr_miss_rate::total     0.013664                       # mshr miss rate for overall accesses
system.cpu.dcache.demand_avg_mshr_miss_latency::.cpu.data 35411.695114                       # average overall mshr miss latency
system.cpu.dcache.demand_avg_mshr_miss_latency::total 35411.695114                       # average overall mshr miss latency
system.cpu.dcache.overall_avg_mshr_miss_latency::.cpu.data 35896.388805                       # average overall mshr miss latency
system.cpu.dcache.overall_avg_mshr_miss_latency::total 35896.388805                       # average overall mshr miss latency
system.cpu.dcache.replacements                 710568                       # number of replacements
system.cpu.dcache.ReadReq_hits::.cpu.data     40703482                       # number of ReadReq hits
system.cpu.dcache.ReadReq_hits::total        40703482                       # number of ReadReq hits
system.cpu.dcache.ReadReq_misses::.cpu.data       417716                       # number of ReadReq misses
system.cpu.dcache.ReadReq_misses::total        417716                       # number of ReadReq misses
system.cpu.dcache.ReadReq_miss_latency::.cpu.data  10664888500                       # number of ReadReq miss cycles
system.cpu.dcache.ReadReq_miss_latency::total  10664888500                       # number of ReadReq miss cycles
system.cpu.dcache.ReadReq_accesses::.cpu.data     41121198                       # number of ReadReq accesses(hits+misses)
system.cpu.dcache.ReadReq_accesses::total     41121198                       # number of ReadReq accesses(hits+misses)
system.cpu.dcache.ReadReq_miss_rate::.cpu.data     0.010158                       # miss rate for ReadReq accesses
system.cpu.dcache.ReadReq_miss_rate::total     0.010158                       # miss rate for ReadReq accesses
system.cpu.dcache.ReadReq_avg_miss_latency::.cpu.data 25531.434037                       # average ReadReq miss latency
system.cpu.dcache.ReadReq_avg_miss_latency::total 25531.434037                       # average ReadReq miss latency
system.cpu.dcache.ReadReq_mshr_hits::.cpu.data          375                       # number of ReadReq MSHR hits
system.cpu.dcache.ReadReq_mshr_hits::total          375                       # number of ReadReq MSHR hits
system.cpu.dcache.ReadReq_mshr_misses::.cpu.data       417341                       # number of ReadReq MSHR misses
system.cpu.dcache.ReadReq_mshr_misses::total       417341                       # number of ReadReq MSHR misses
system.cpu.dcache.ReadReq_mshr_miss_latency::.cpu.data  10234968500                       # number of ReadReq MSHR miss cycles
system.cpu.dcache.ReadReq_mshr_miss_latency::total  10234968500                       # number of ReadReq MSHR miss cycles
system.cpu.dcache.ReadReq_mshr_miss_rate::.cpu.data     0.010149                       # mshr miss rate for ReadReq accesses
system.cpu.dcache.ReadReq_mshr_miss_rate::total     0.010149                       # mshr miss rate for ReadReq accesses
system.cpu.dcache.ReadReq_avg_mshr_miss_latency::.cpu.data 24524.234379                       # average ReadReq mshr miss latency
system.cpu.dcache.ReadReq_avg_mshr_miss_latency::total 24524.234379                       # average ReadReq mshr miss latency
system.cpu.dcache.WriteReq_hits::.cpu.data     10605149                       # number of WriteReq hits
system.cpu.dcache.WriteReq_hits::total       10605149                       # number of WriteReq hits
system.cpu.dcache.WriteReq_misses::.cpu.data       344952                       # number of WriteReq misses
system.cpu.dcache.WriteReq_misses::total       344952                       # number of WriteReq misses
system.cpu.dcache.WriteReq_miss_latency::.cpu.data  16581392500                       # number of WriteReq miss cycles
system.cpu.dcache.WriteReq_miss_latency::total  16581392500                       # number of WriteReq miss cycles
system.cpu.dcache.WriteReq_accesses::.cpu.data     10950101                       # number of WriteReq accesses(hits+misses)
system.cpu.dcache.WriteReq_accesses::total     10950101                       # number of WriteReq accesses(hits+misses)
system.cpu.dcache.WriteReq_miss_rate::.cpu.data     0.031502                       # miss rate for WriteReq accesses
system.cpu.dcache.WriteReq_miss_rate::total     0.031502                       # miss rate for WriteReq accesses
system.cpu.dcache.WriteReq_avg_miss_latency::.cpu.data 48068.695065                       # average WriteReq miss latency
system.cpu.dcache.WriteReq_avg_miss_latency::total 48068.695065                       # average WriteReq miss latency
system.cpu.dcache.WriteReq_mshr_hits::.cpu.data        58606                       # number of WriteReq MSHR hits
system.cpu.dcache.WriteReq_mshr_hits::total        58606                       # number of WriteReq MSHR hits
system.cpu.dcache.WriteReq_mshr_misses::.cpu.data       286346                       # number of WriteReq MSHR misses
system.cpu.dcache.WriteReq_mshr_misses::total       286346                       # number of WriteReq MSHR misses
system.cpu.dcache.WriteReq_mshr_miss_latency::.cpu.data  14683781000                       # number of WriteReq MSHR miss cycles
system.cpu.dcache.WriteReq_mshr_miss_latency::total  14683781000                       # number of WriteReq MSHR miss cycles
system.cpu.dcache.WriteReq_mshr_miss_rate::.cpu.data     0.026150                       # mshr miss rate for WriteReq accesses
system.cpu.dcache.WriteReq_mshr_miss_rate::total     0.026150                       # mshr miss rate for WriteReq accesses
system.cpu.dcache.WriteReq_avg_mshr_miss_latency::.cpu.data 51279.853743                       # average WriteReq mshr miss latency
system.cpu.dcache.WriteReq_avg_mshr_miss_latency::total 51279.853743                       # average WriteReq mshr miss latency
system.cpu.dcache.SoftPFReq_hits::.cpu.data          506                       # number of SoftPFReq hits
system.cpu.dcache.SoftPFReq_hits::total           506                       # number of SoftPFReq hits
system.cpu.dcache.SoftPFReq_misses::.cpu.data         7912                       # number of SoftPFReq misses
system.cpu.dcache.SoftPFReq_misses::total         7912                       # number of SoftPFReq misses
system.cpu.dcache.SoftPFReq_accesses::.cpu.data         8418                       # number of SoftPFReq accesses(hits+misses)
system.cpu.dcache.SoftPFReq_accesses::total         8418                       # number of SoftPFReq accesses(hits+misses)
system.cpu.dcache.SoftPFReq_miss_rate::.cpu.data     0.939891                       # miss rate for SoftPFReq accesses
system.cpu.dcache.SoftPFReq_miss_rate::total     0.939891                       # miss rate for SoftPFReq accesses
system.cpu.dcache.SoftPFReq_mshr_misses::.cpu.data         7906                       # number of SoftPFReq MSHR misses
system.cpu.dcache.SoftPFReq_mshr_misses::total         7906                       # number of SoftPFReq MSHR misses
system.cpu.dcache.SoftPFReq_mshr_miss_latency::.cpu.data    624869499                       # number of SoftPFReq MSHR miss cycles
system.cpu.dcache.SoftPFReq_mshr_miss_latency::total    624869499                       # number of SoftPFReq MSHR miss cycles
system.cpu.dcache.SoftPFReq_mshr_miss_rate::.cpu.data     0.939178                       # mshr miss rate for SoftPFReq accesses
system.cpu.dcache.SoftPFReq_mshr_miss_rate::total     0.939178                       # mshr miss rate for SoftPFReq accesses
system.cpu.dcache.SoftPFReq_avg_mshr_miss_latency::.cpu.data 79037.376549                       # average SoftPFReq mshr miss latency
system.cpu.dcache.SoftPFReq_avg_mshr_miss_latency::total 79037.376549                       # average SoftPFReq mshr miss latency
system.cpu.dcache.LoadLockedReq_hits::.cpu.data           38                       # number of LoadLockedReq hits
system.cpu.dcache.LoadLockedReq_hits::total           38                       # number of LoadLockedReq hits
system.cpu.dcache.LoadLockedReq_accesses::.cpu.data           38                       # number of LoadLockedReq accesses(hits+misses)
system.cpu.dcache.LoadLockedReq_accesses::total           38                       # number of LoadLockedReq accesses(hits+misses)
system.cpu.dcache.StoreCondReq_hits::.cpu.data           38                       # number of StoreCondReq hits
system.cpu.dcache.StoreCondReq_hits::total           38                       # number of StoreCondReq hits
system.cpu.dcache.StoreCondReq_accesses::.cpu.data           38                       # number of StoreCondReq accesses(hits+misses)
system.cpu.dcache.StoreCondReq_accesses::total           38                       # number of StoreCondReq accesses(hits+misses)
system.cpu.dcache.tags.pwrStateResidencyTicks::UNDEFINED  85521534500                       # Cumulative time (in ticks) in various power states
system.cpu.dcache.tags.tagsinuse          1008.466580                       # Cycle average of tags in use
system.cpu.dcache.tags.total_refs            52020805                       # Total number of references to valid blocks.
system.cpu.dcache.tags.sampled_refs            711592                       # Sample count of references to valid blocks.
system.cpu.dcache.tags.avg_refs             73.104820                       # Average number of references to valid blocks.
system.cpu.dcache.tags.warmup_cycle            176500                       # Cycle when the warmup percentage was hit.
system.cpu.dcache.tags.occ_blocks::.cpu.data  1008.466580                       # Average occupied blocks per requestor
system.cpu.dcache.tags.occ_percent::.cpu.data     0.984831                       # Average percentage of cache occupancy
system.cpu.dcache.tags.occ_percent::total     0.984831                       # Average percentage of cache occupancy
system.cpu.dcache.tags.occ_task_id_blocks::1024         1024                       # Occupied blocks per task id
system.cpu.dcache.tags.age_task_id_blocks_1024::0          208                       # Occupied blocks per task id
system.cpu.dcache.tags.age_task_id_blocks_1024::1          357                       # Occupied blocks per task id
system.cpu.dcache.tags.age_task_id_blocks_1024::2          457                       # Occupied blocks per task id
system.cpu.dcache.tags.age_task_id_blocks_1024::3            2                       # Occupied blocks per task id
system.cpu.dcache.tags.occ_task_id_percent::1024            1                       # Percentage of cache occupancy per task id
system.cpu.dcache.tags.tag_accesses         104871178                       # Number of tag accesses
system.cpu.dcache.tags.data_accesses        104871178                       # Number of data accesses
system.cpu.itb.walker.pwrStateResidencyTicks::UNDEFINED  85521534500                       # Cumulative time (in ticks) in various power states
system.cpu.itb.stage2_mmu.stage2_tlb.walker.pwrStateResidencyTicks::UNDEFINED  85521534500                       # Cumulative time (in ticks) in various power states

---------- End Simulation Statistics   ----------
