
---------- Begin Simulation Statistics ----------
final_tick                                65181467500                       # Number of ticks from beginning of simulation (restored from checkpoints and never reset)
host_inst_rate                                 479350                       # Simulator instruction rate (inst/s)
host_mem_usage                                 685720                       # Number of bytes of host memory used
host_op_rate                                   524562                       # Simulator op (including micro ops) rate (op/s)
host_seconds                                   208.62                       # Real time elapsed on the host
host_tick_rate                              312447127                       # Simulator tick rate (ticks/s)
sim_freq                                 1000000000000                       # Frequency of simulated ticks
sim_insts                                   100000001                       # Number of instructions simulated
sim_ops                                     109431937                       # Number of ops (including micro ops) simulated
sim_seconds                                  0.065181                       # Number of seconds simulated
sim_ticks                                 65181467500                       # Number of ticks simulated
system.cpu.branchPred.BTBCorrect                    0                       # Number of correct BTB predictions (this stat may not work properly.
system.cpu.branchPred.BTBHitPct             88.088148                       # BTB Hit Percentage
system.cpu.branchPred.BTBHits                 8691529                       # Number of BTB hits
system.cpu.branchPred.BTBLookups              9866854                       # Number of BTB lookups
system.cpu.branchPred.RASInCorrect                345                       # Number of incorrect RAS predictions.
system.cpu.branchPred.condIncorrect            142503                       # Number of conditional branches incorrect
system.cpu.branchPred.condPredicted          16342529                       # Number of conditional branches predicted
system.cpu.branchPred.indirectHits             300025                       # Number of indirect target hits.
system.cpu.branchPred.indirectLookups          434104                       # Number of indirect predictor lookups.
system.cpu.branchPred.indirectMisses           134079                       # Number of indirect misses.
system.cpu.branchPred.lookups                20405396                       # Number of BP lookups
system.cpu.branchPred.usedRAS                 1050672                       # Number of times the RAS was used to get a target.
system.cpu.branchPredindirectMispredicted         1038                       # Number of mispredicted indirect branches.
system.cpu.committedInsts                   100000001                       # Number of instructions committed
system.cpu.committedOps                     109431937                       # Number of ops (including micro ops) committed
system.cpu.cpi                               1.303629                       # CPI: cycles per instruction
system.cpu.discardedOps                        690948                       # Number of ops (including micro ops) which were discarded before commit
system.cpu.dtb.accesses                             0                       # DTB accesses
system.cpu.dtb.align_faults                         0                       # Number of TLB faults due to alignment restrictions
system.cpu.dtb.domain_faults                        0                       # Number of TLB faults due to domain restrictions
system.cpu.dtb.flush_entries                        0                       # Number of entries that have been flushed from TLB
system.cpu.dtb.flush_tlb                            0                       # Number of times complete TLB was flushed
system.cpu.dtb.flush_tlb_asid                       0                       # Number of times TLB was flushed by ASID
system.cpu.dtb.flush_tlb_mva                        0                       # Number of times TLB was flushed by MVA
system.cpu.dtb.flush_tlb_mva_asid                   0                       # Number of times TLB was flushed by MVA & ASID
system.cpu.dtb.hits                                 0                       # DTB hits
system.cpu.dtb.inst_accesses                        0                       # ITB inst accesses
system.cpu.dtb.inst_hits                            0                       # ITB inst hits
system.cpu.dtb.inst_misses                          0                       # ITB inst misses
system.cpu.dtb.misses                               0                       # DTB misses
system.cpu.dtb.perms_faults                         0                       # Number of TLB faults due to permissions restrictions
system.cpu.dtb.prefetch_faults                      0                       # Number of TLB faults due to prefetch
system.cpu.dtb.read_accesses                        0                       # DTB read accesses
system.cpu.dtb.read_hits                            0                       # DTB read hits
system.cpu.dtb.read_misses                          0                       # DTB read misses
system.cpu.dtb.stage2_mmu.stage2_tlb.accesses            0                       # DTB accesses
system.cpu.dtb.stage2_mmu.stage2_tlb.align_faults            0                       # Number of TLB faults due to alignment restrictions
system.cpu.dtb.stage2_mmu.stage2_tlb.domain_faults            0                       # Number of TLB faults due to domain restrictions
system.cpu.dtb.stage2_mmu.stage2_tlb.flush_entries            0                       # Number of entries that have been flushed from TLB
system.cpu.dtb.stage2_mmu.stage2_tlb.flush_tlb            0                       # Number of times complete TLB was flushed
system.cpu.dtb.stage2_mmu.stage2_tlb.flush_tlb_asid            0                       # Number of times TLB was flushed by ASID
system.cpu.dtb.stage2_mmu.stage2_tlb.flush_tlb_mva            0                       # Number of times TLB was flushed by MVA
system.cpu.dtb.stage2_mmu.stage2_tlb.flush_tlb_mva_asid            0                       # Number of times TLB was flushed by MVA & ASID
system.cpu.dtb.stage2_mmu.stage2_tlb.hits            0                       # DTB hits
system.cpu.dtb.stage2_mmu.stage2_tlb.inst_accesses            0                       # ITB inst accesses
system.cpu.dtb.stage2_mmu.stage2_tlb.inst_hits            0                       # ITB inst hits
system.cpu.dtb.stage2_mmu.stage2_tlb.inst_misses            0                       # ITB inst misses
system.cpu.dtb.stage2_mmu.stage2_tlb.misses            0                       # DTB misses
system.cpu.dtb.stage2_mmu.stage2_tlb.perms_faults            0                       # Number of TLB faults due to permissions restrictions
system.cpu.dtb.stage2_mmu.stage2_tlb.prefetch_faults            0                       # Number of TLB faults due to prefetch
system.cpu.dtb.stage2_mmu.stage2_tlb.read_accesses            0                       # DTB read accesses
system.cpu.dtb.stage2_mmu.stage2_tlb.read_hits            0                       # DTB read hits
system.cpu.dtb.stage2_mmu.stage2_tlb.read_misses            0                       # DTB read misses
system.cpu.dtb.stage2_mmu.stage2_tlb.walker.walkRequestOrigin_Requested::Data            0                       # Table walker requests started/completed, data/inst
system.cpu.dtb.stage2_mmu.stage2_tlb.walker.walkRequestOrigin_Requested::Inst            0                       # Table walker requests started/completed, data/inst
system.cpu.dtb.stage2_mmu.stage2_tlb.walker.walkRequestOrigin_Requested::total            0                       # Table walker requests started/completed, data/inst
system.cpu.dtb.stage2_mmu.stage2_tlb.walker.walkRequestOrigin_Completed::Data            0                       # Table walker requests started/completed, data/inst
system.cpu.dtb.stage2_mmu.stage2_tlb.walker.walkRequestOrigin_Completed::Inst            0                       # Table walker requests started/completed, data/inst
system.cpu.dtb.stage2_mmu.stage2_tlb.walker.walkRequestOrigin_Completed::total            0                       # Table walker requests started/completed, data/inst
system.cpu.dtb.stage2_mmu.stage2_tlb.walker.walkRequestOrigin::total            0                       # Table walker requests started/completed, data/inst
system.cpu.dtb.stage2_mmu.stage2_tlb.walker.walks            0                       # Table walker walks requested
system.cpu.dtb.stage2_mmu.stage2_tlb.write_accesses            0                       # DTB write accesses
system.cpu.dtb.stage2_mmu.stage2_tlb.write_hits            0                       # DTB write hits
system.cpu.dtb.stage2_mmu.stage2_tlb.write_misses            0                       # DTB write misses
system.cpu.dtb.walker.walkRequestOrigin_Requested::Data            0                       # Table walker requests started/completed, data/inst
system.cpu.dtb.walker.walkRequestOrigin_Requested::Inst            0                       # Table walker requests started/completed, data/inst
system.cpu.dtb.walker.walkRequestOrigin_Requested::total            0                       # Table walker requests started/completed, data/inst
system.cpu.dtb.walker.walkRequestOrigin_Completed::Data            0                       # Table walker requests started/completed, data/inst
system.cpu.dtb.walker.walkRequestOrigin_Completed::Inst            0                       # Table walker requests started/completed, data/inst
system.cpu.dtb.walker.walkRequestOrigin_Completed::total            0                       # Table walker requests started/completed, data/inst
system.cpu.dtb.walker.walkRequestOrigin::total            0                       # Table walker requests started/completed, data/inst
system.cpu.dtb.walker.walks                         0                       # Table walker walks requested
system.cpu.dtb.write_accesses                       0                       # DTB write accesses
system.cpu.dtb.write_hits                           0                       # DTB write hits
system.cpu.dtb.write_misses                         0                       # DTB write misses
system.cpu.fetch2.amo_instructions                  0                       # Number of memory atomic instructions successfully decoded
system.cpu.fetch2.fp_instructions                   0                       # Number of floating point instructions successfully decoded
system.cpu.fetch2.int_instructions           49596735                       # Number of integer instructions successfully decoded
system.cpu.fetch2.load_instructions          17142167                       # Number of memory load instructions successfully decoded
system.cpu.fetch2.store_instructions          9894429                       # Number of memory store instructions successfully decoded
system.cpu.fetch2.vec_instructions                  0                       # Number of SIMD instructions successfully decoded
system.cpu.idleCycles                        14016158                       # Total number of cycles that the object has spent stopped
system.cpu.ipc                               0.767089                       # IPC: instructions per cycle
system.cpu.itb.accesses                             0                       # DTB accesses
system.cpu.itb.align_faults                         0                       # Number of TLB faults due to alignment restrictions
system.cpu.itb.domain_faults                        0                       # Number of TLB faults due to domain restrictions
system.cpu.itb.flush_entries                        0                       # Number of entries that have been flushed from TLB
system.cpu.itb.flush_tlb                            0                       # Number of times complete TLB was flushed
system.cpu.itb.flush_tlb_asid                       0                       # Number of times TLB was flushed by ASID
system.cpu.itb.flush_tlb_mva                        0                       # Number of times TLB was flushed by MVA
system.cpu.itb.flush_tlb_mva_asid                   0                       # Number of times TLB was flushed by MVA & ASID
system.cpu.itb.hits                                 0                       # DTB hits
system.cpu.itb.inst_accesses                        0                       # ITB inst accesses
system.cpu.itb.inst_hits                            0                       # ITB inst hits
system.cpu.itb.inst_misses                          0                       # ITB inst misses
system.cpu.itb.misses                               0                       # DTB misses
system.cpu.itb.perms_faults                         0                       # Number of TLB faults due to permissions restrictions
system.cpu.itb.prefetch_faults                      0                       # Number of TLB faults due to prefetch
system.cpu.itb.read_accesses                        0                       # DTB read accesses
system.cpu.itb.read_hits                            0                       # DTB read hits
system.cpu.itb.read_misses                          0                       # DTB read misses
system.cpu.itb.stage2_mmu.stage2_tlb.accesses            0                       # DTB accesses
system.cpu.itb.stage2_mmu.stage2_tlb.align_faults            0                       # Number of TLB faults due to alignment restrictions
system.cpu.itb.stage2_mmu.stage2_tlb.domain_faults            0                       # Number of TLB faults due to domain restrictions
system.cpu.itb.stage2_mmu.stage2_tlb.flush_entries            0                       # Number of entries that have been flushed from TLB
system.cpu.itb.stage2_mmu.stage2_tlb.flush_tlb            0                       # Number of times complete TLB was flushed
system.cpu.itb.stage2_mmu.stage2_tlb.flush_tlb_asid            0                       # Number of times TLB was flushed by ASID
system.cpu.itb.stage2_mmu.stage2_tlb.flush_tlb_mva            0                       # Number of times TLB was flushed by MVA
system.cpu.itb.stage2_mmu.stage2_tlb.flush_tlb_mva_asid            0                       # Number of times TLB was flushed by MVA & ASID
system.cpu.itb.stage2_mmu.stage2_tlb.hits            0                       # DTB hits
system.cpu.itb.stage2_mmu.stage2_tlb.inst_accesses            0                       # ITB inst accesses
system.cpu.itb.stage2_mmu.stage2_tlb.inst_hits            0                       # ITB inst hits
system.cpu.itb.stage2_mmu.stage2_tlb.inst_misses            0                       # ITB inst misses
system.cpu.itb.stage2_mmu.stage2_tlb.misses            0                       # DTB misses
system.cpu.itb.stage2_mmu.stage2_tlb.perms_faults            0                       # Number of TLB faults due to permissions restrictions
system.cpu.itb.stage2_mmu.stage2_tlb.prefetch_faults            0                       # Number of TLB faults due to prefetch
system.cpu.itb.stage2_mmu.stage2_tlb.read_accesses            0                       # DTB read accesses
system.cpu.itb.stage2_mmu.stage2_tlb.read_hits            0                       # DTB read hits
system.cpu.itb.stage2_mmu.stage2_tlb.read_misses            0                       # DTB read misses
system.cpu.itb.stage2_mmu.stage2_tlb.walker.walkRequestOrigin_Requested::Data            0                       # Table walker requests started/completed, data/inst
system.cpu.itb.stage2_mmu.stage2_tlb.walker.walkRequestOrigin_Requested::Inst            0                       # Table walker requests started/completed, data/inst
system.cpu.itb.stage2_mmu.stage2_tlb.walker.walkRequestOrigin_Requested::total            0                       # Table walker requests started/completed, data/inst
system.cpu.itb.stage2_mmu.stage2_tlb.walker.walkRequestOrigin_Completed::Data            0                       # Table walker requests started/completed, data/inst
system.cpu.itb.stage2_mmu.stage2_tlb.walker.walkRequestOrigin_Completed::Inst            0                       # Table walker requests started/completed, data/inst
system.cpu.itb.stage2_mmu.stage2_tlb.walker.walkRequestOrigin_Completed::total            0                       # Table walker requests started/completed, data/inst
system.cpu.itb.stage2_mmu.stage2_tlb.walker.walkRequestOrigin::total            0                       # Table walker requests started/completed, data/inst
system.cpu.itb.stage2_mmu.stage2_tlb.walker.walks            0                       # Table walker walks requested
system.cpu.itb.stage2_mmu.stage2_tlb.write_accesses            0                       # DTB write accesses
system.cpu.itb.stage2_mmu.stage2_tlb.write_hits            0                       # DTB write hits
system.cpu.itb.stage2_mmu.stage2_tlb.write_misses            0                       # DTB write misses
system.cpu.itb.walker.walkRequestOrigin_Requested::Data            0                       # Table walker requests started/completed, data/inst
system.cpu.itb.walker.walkRequestOrigin_Requested::Inst            0                       # Table walker requests started/completed, data/inst
system.cpu.itb.walker.walkRequestOrigin_Requested::total            0                       # Table walker requests started/completed, data/inst
system.cpu.itb.walker.walkRequestOrigin_Completed::Data            0                       # Table walker requests started/completed, data/inst
system.cpu.itb.walker.walkRequestOrigin_Completed::Inst            0                       # Table walker requests started/completed, data/inst
system.cpu.itb.walker.walkRequestOrigin_Completed::total            0                       # Table walker requests started/completed, data/inst
system.cpu.itb.walker.walkRequestOrigin::total            0                       # Table walker requests started/completed, data/inst
system.cpu.itb.walker.walks                         0                       # Table walker walks requested
system.cpu.itb.write_accesses                       0                       # DTB write accesses
system.cpu.itb.write_hits                           0                       # DTB write hits
system.cpu.itb.write_misses                         0                       # DTB write misses
system.cpu.numCycles                        130362935                       # number of cpu cycles simulated
system.cpu.numFetchSuspends                         0                       # Number of times Execute suspended instruction fetching
system.cpu.numWorkItemsCompleted                    0                       # number of work items this cpu completed
system.cpu.numWorkItemsStarted                      0                       # number of work items this cpu started
system.cpu.op_class_0::No_OpClass                   0      0.00%      0.00% # Class of committed instruction
system.cpu.op_class_0::IntAlu                72955303     66.67%     66.67% # Class of committed instruction
system.cpu.op_class_0::IntMult                 568365      0.52%     67.19% # Class of committed instruction
system.cpu.op_class_0::IntDiv                       0      0.00%     67.19% # Class of committed instruction
system.cpu.op_class_0::FloatAdd                     0      0.00%     67.19% # Class of committed instruction
system.cpu.op_class_0::FloatCmp                     0      0.00%     67.19% # Class of committed instruction
system.cpu.op_class_0::FloatCvt                     0      0.00%     67.19% # Class of committed instruction
system.cpu.op_class_0::FloatMult                    0      0.00%     67.19% # Class of committed instruction
system.cpu.op_class_0::FloatMultAcc                 0      0.00%     67.19% # Class of committed instruction
system.cpu.op_class_0::FloatDiv                     0      0.00%     67.19% # Class of committed instruction
system.cpu.op_class_0::FloatMisc                    0      0.00%     67.19% # Class of committed instruction
system.cpu.op_class_0::FloatSqrt                    0      0.00%     67.19% # Class of committed instruction
system.cpu.op_class_0::SimdAdd                 241252      0.22%     67.41% # Class of committed instruction
system.cpu.op_class_0::SimdAddAcc                   0      0.00%     67.41% # Class of committed instruction
system.cpu.op_class_0::SimdAlu                 154720      0.14%     67.55% # Class of committed instruction
system.cpu.op_class_0::SimdCmp                 120626      0.11%     67.66% # Class of committed instruction
system.cpu.op_class_0::SimdCvt                      0      0.00%     67.66% # Class of committed instruction
system.cpu.op_class_0::SimdMisc                 44544      0.04%     67.70% # Class of committed instruction
system.cpu.op_class_0::SimdMult                     0      0.00%     67.70% # Class of committed instruction
system.cpu.op_class_0::SimdMultAcc                  0      0.00%     67.70% # Class of committed instruction
system.cpu.op_class_0::SimdShift                    0      0.00%     67.70% # Class of committed instruction
system.cpu.op_class_0::SimdShiftAcc                 0      0.00%     67.70% # Class of committed instruction
system.cpu.op_class_0::SimdDiv                      0      0.00%     67.70% # Class of committed instruction
system.cpu.op_class_0::SimdSqrt                     0      0.00%     67.70% # Class of committed instruction
system.cpu.op_class_0::SimdFloatAdd                 0      0.00%     67.70% # Class of committed instruction
system.cpu.op_class_0::SimdFloatAlu                 0      0.00%     67.70% # Class of committed instruction
system.cpu.op_class_0::SimdFloatCmp                 0      0.00%     67.70% # Class of committed instruction
system.cpu.op_class_0::SimdFloatCvt                 0      0.00%     67.70% # Class of committed instruction
system.cpu.op_class_0::SimdFloatDiv                 0      0.00%     67.70% # Class of committed instruction
system.cpu.op_class_0::SimdFloatMisc           166465      0.15%     67.85% # Class of committed instruction
system.cpu.op_class_0::SimdFloatMult                0      0.00%     67.85% # Class of committed instruction
system.cpu.op_class_0::SimdFloatMultAcc             0      0.00%     67.85% # Class of committed instruction
system.cpu.op_class_0::SimdFloatSqrt                0      0.00%     67.85% # Class of committed instruction
system.cpu.op_class_0::SimdReduceAdd                0      0.00%     67.85% # Class of committed instruction
system.cpu.op_class_0::SimdReduceAlu                0      0.00%     67.85% # Class of committed instruction
system.cpu.op_class_0::SimdReduceCmp                0      0.00%     67.85% # Class of committed instruction
system.cpu.op_class_0::SimdFloatReduceAdd            0      0.00%     67.85% # Class of committed instruction
system.cpu.op_class_0::SimdFloatReduceCmp            0      0.00%     67.85% # Class of committed instruction
system.cpu.op_class_0::SimdAes                      0      0.00%     67.85% # Class of committed instruction
system.cpu.op_class_0::SimdAesMix                   0      0.00%     67.85% # Class of committed instruction
system.cpu.op_class_0::SimdSha1Hash                 0      0.00%     67.85% # Class of committed instruction
system.cpu.op_class_0::SimdSha1Hash2                0      0.00%     67.85% # Class of committed instruction
system.cpu.op_class_0::SimdSha256Hash               0      0.00%     67.85% # Class of committed instruction
system.cpu.op_class_0::SimdSha256Hash2              0      0.00%     67.85% # Class of committed instruction
system.cpu.op_class_0::SimdShaSigma2                0      0.00%     67.85% # Class of committed instruction
system.cpu.op_class_0::SimdShaSigma3                0      0.00%     67.85% # Class of committed instruction
system.cpu.op_class_0::SimdPredAlu                  0      0.00%     67.85% # Class of committed instruction
system.cpu.op_class_0::MemRead               20646465     18.87%     86.72% # Class of committed instruction
system.cpu.op_class_0::MemWrite              14534197     13.28%    100.00% # Class of committed instruction
system.cpu.op_class_0::FloatMemRead                 0      0.00%    100.00% # Class of committed instruction
system.cpu.op_class_0::FloatMemWrite                0      0.00%    100.00% # Class of committed instruction
system.cpu.op_class_0::IprAccess                    0      0.00%    100.00% # Class of committed instruction
system.cpu.op_class_0::InstPrefetch                 0      0.00%    100.00% # Class of committed instruction
system.cpu.op_class_0::total                109431937                       # Class of committed instruction
system.cpu.tickCycles                       116346777                       # Number of cycles that the object actually ticked
system.cpu.workload.numSyscalls                    86                       # Number of system calls
system.membus.snoop_filter.hit_multi_requests            0                       # Number of requests hitting in the snoop filter with multiple (>1) holders of the requested data.
system.membus.snoop_filter.hit_multi_snoops            0                       # Number of snoops hitting in the snoop filter with multiple (>1) holders of the requested data.
system.membus.snoop_filter.hit_single_requests        26223                       # Number of requests hitting in the snoop filter with a single holder of the requested data.
system.membus.snoop_filter.hit_single_snoops            0                       # Number of snoops hitting in the snoop filter with a single holder of the requested data.
system.membus.snoop_filter.tot_requests         69233                       # Total number of requests made to the snoop filter.
system.membus.snoop_filter.tot_snoops               0                       # Total number of snoops made to the snoop filter.
system.tol2bus.snoop_filter.hit_multi_requests           29                       # Number of requests hitting in the snoop filter with multiple (>1) holders of the requested data.
system.tol2bus.snoop_filter.hit_multi_snoops            5                       # Number of snoops hitting in the snoop filter with multiple (>1) holders of the requested data.
system.tol2bus.snoop_filter.hit_single_requests       722971                       # Number of requests hitting in the snoop filter with a single holder of the requested data.
system.tol2bus.snoop_filter.hit_single_snoops          423                       # Number of snoops hitting in the snoop filter with a single holder of the requested data.
system.tol2bus.snoop_filter.tot_requests      1447357                       # Total number of requests made to the snoop filter.
system.tol2bus.snoop_filter.tot_snoops            428                       # Total number of snoops made to the snoop filter.
system.membus.pwrStateResidencyTicks::UNDEFINED  65181467500                       # Cumulative time (in ticks) in various power states
system.membus.trans_dist::ReadResp               4201                       # Transaction distribution
system.membus.trans_dist::WritebackDirty        26039                       # Transaction distribution
system.membus.trans_dist::CleanEvict              181                       # Transaction distribution
system.membus.trans_dist::ReadExReq             38812                       # Transaction distribution
system.membus.trans_dist::ReadExResp            38812                       # Transaction distribution
system.membus.trans_dist::ReadSharedReq          4201                       # Transaction distribution
system.membus.pkt_count_system.l2.mem_side::system.mem_ctrls.port       112246                       # Packet count per connected master and slave (bytes)
system.membus.pkt_count::total                 112246                       # Packet count per connected master and slave (bytes)
system.membus.pkt_size_system.l2.mem_side::system.mem_ctrls.port      4419328                       # Cumulative packet size per connected master and slave (bytes)
system.membus.pkt_size::total                 4419328                       # Cumulative packet size per connected master and slave (bytes)
system.membus.snoops                                0                       # Total snoops (count)
system.membus.snoopTraffic                          0                       # Total snoop traffic (bytes)
system.membus.snoop_fanout::samples             43013                       # Request fanout histogram
system.membus.snoop_fanout::mean                    0                       # Request fanout histogram
system.membus.snoop_fanout::stdev                   0                       # Request fanout histogram
system.membus.snoop_fanout::underflows              0      0.00%      0.00% # Request fanout histogram
system.membus.snoop_fanout::0                   43013    100.00%    100.00% # Request fanout histogram
system.membus.snoop_fanout::1                       0      0.00%    100.00% # Request fanout histogram
system.membus.snoop_fanout::overflows               0      0.00%    100.00% # Request fanout histogram
system.membus.snoop_fanout::min_value               0                       # Request fanout histogram
system.membus.snoop_fanout::max_value               0                       # Request fanout histogram
system.membus.snoop_fanout::total               43013                       # Request fanout histogram
system.membus.respLayer1.occupancy          230046500                       # Layer occupancy (ticks)
system.membus.respLayer1.utilization              0.4                       # Layer utilization (%)
system.membus.reqLayer0.occupancy           182864000                       # Layer occupancy (ticks)
system.membus.reqLayer0.utilization               0.3                       # Layer utilization (%)
system.tol2bus.pwrStateResidencyTicks::UNDEFINED  65181467500                       # Cumulative time (in ticks) in various power states
system.tol2bus.trans_dist::ReadResp            685454                       # Transaction distribution
system.tol2bus.trans_dist::WritebackDirty        76548                       # Transaction distribution
system.tol2bus.trans_dist::WritebackClean       668515                       # Transaction distribution
system.tol2bus.trans_dist::CleanEvict            4546                       # Transaction distribution
system.tol2bus.trans_dist::ReadExReq            38935                       # Transaction distribution
system.tol2bus.trans_dist::ReadExResp           38935                       # Transaction distribution
system.tol2bus.trans_dist::ReadCleanReq        668914                       # Transaction distribution
system.tol2bus.trans_dist::ReadSharedReq        16541                       # Transaction distribution
system.tol2bus.pkt_count_system.cpu.icache.mem_side::system.l2.cpu_side      2006342                       # Packet count per connected master and slave (bytes)
system.tol2bus.pkt_count_system.cpu.dcache.mem_side::system.l2.cpu_side       165404                       # Packet count per connected master and slave (bytes)
system.tol2bus.pkt_count::total               2171746                       # Packet count per connected master and slave (bytes)
system.tol2bus.pkt_size_system.cpu.icache.mem_side::system.l2.cpu_side     85595392                       # Cumulative packet size per connected master and slave (bytes)
system.tol2bus.pkt_size_system.cpu.dcache.mem_side::system.l2.cpu_side      6783040                       # Cumulative packet size per connected master and slave (bytes)
system.tol2bus.pkt_size::total               92378432                       # Cumulative packet size per connected master and slave (bytes)
system.tol2bus.snoops                           26642                       # Total snoops (count)
system.tol2bus.snoopTraffic                   1666496                       # Total snoop traffic (bytes)
system.tol2bus.snoop_fanout::samples           751032                       # Request fanout histogram
system.tol2bus.snoop_fanout::mean            0.000620                       # Request fanout histogram
system.tol2bus.snoop_fanout::stdev           0.025168                       # Request fanout histogram
system.tol2bus.snoop_fanout::underflows             0      0.00%      0.00% # Request fanout histogram
system.tol2bus.snoop_fanout::0                 750571     99.94%     99.94% # Request fanout histogram
system.tol2bus.snoop_fanout::1                    456      0.06%    100.00% # Request fanout histogram
system.tol2bus.snoop_fanout::2                      5      0.00%    100.00% # Request fanout histogram
system.tol2bus.snoop_fanout::overflows              0      0.00%    100.00% # Request fanout histogram
system.tol2bus.snoop_fanout::min_value              0                       # Request fanout histogram
system.tol2bus.snoop_fanout::max_value              2                       # Request fanout histogram
system.tol2bus.snoop_fanout::total             751032                       # Request fanout histogram
system.tol2bus.reqLayer0.occupancy         1442702500                       # Layer occupancy (ticks)
system.tol2bus.reqLayer0.utilization              2.2                       # Layer utilization (%)
system.tol2bus.respLayer1.occupancy          83216495                       # Layer occupancy (ticks)
system.tol2bus.respLayer1.utilization             0.1                       # Layer utilization (%)
system.tol2bus.respLayer0.occupancy        1003369999                       # Layer occupancy (ticks)
system.tol2bus.respLayer0.utilization             1.5                       # Layer utilization (%)
system.voltage_domain.voltage                       1                       # Voltage in Volts
system.clk_domain.clock                          1000                       # Clock period in ticks
system.l2.pwrStateResidencyTicks::UNDEFINED  65181467500                       # Cumulative time (in ticks) in various power states
system.l2.demand_hits::.cpu.inst               668401                       # number of demand (read+write) hits
system.l2.demand_hits::.cpu.data                12970                       # number of demand (read+write) hits
system.l2.demand_hits::total                   681371                       # number of demand (read+write) hits
system.l2.overall_hits::.cpu.inst              668401                       # number of overall hits
system.l2.overall_hits::.cpu.data               12970                       # number of overall hits
system.l2.overall_hits::total                  681371                       # number of overall hits
system.l2.demand_misses::.cpu.inst                513                       # number of demand (read+write) misses
system.l2.demand_misses::.cpu.data              42506                       # number of demand (read+write) misses
system.l2.demand_misses::total                  43019                       # number of demand (read+write) misses
system.l2.overall_misses::.cpu.inst               513                       # number of overall misses
system.l2.overall_misses::.cpu.data             42506                       # number of overall misses
system.l2.overall_misses::total                 43019                       # number of overall misses
system.l2.demand_miss_latency::.cpu.inst     39183000                       # number of demand (read+write) miss cycles
system.l2.demand_miss_latency::.cpu.data   3505868000                       # number of demand (read+write) miss cycles
system.l2.demand_miss_latency::total       3545051000                       # number of demand (read+write) miss cycles
system.l2.overall_miss_latency::.cpu.inst     39183000                       # number of overall miss cycles
system.l2.overall_miss_latency::.cpu.data   3505868000                       # number of overall miss cycles
system.l2.overall_miss_latency::total      3545051000                       # number of overall miss cycles
system.l2.demand_accesses::.cpu.inst           668914                       # number of demand (read+write) accesses
system.l2.demand_accesses::.cpu.data            55476                       # number of demand (read+write) accesses
system.l2.demand_accesses::total               724390                       # number of demand (read+write) accesses
system.l2.overall_accesses::.cpu.inst          668914                       # number of overall (read+write) accesses
system.l2.overall_accesses::.cpu.data           55476                       # number of overall (read+write) accesses
system.l2.overall_accesses::total              724390                       # number of overall (read+write) accesses
system.l2.demand_miss_rate::.cpu.inst        0.000767                       # miss rate for demand accesses
system.l2.demand_miss_rate::.cpu.data        0.766205                       # miss rate for demand accesses
system.l2.demand_miss_rate::total            0.059387                       # miss rate for demand accesses
system.l2.overall_miss_rate::.cpu.inst       0.000767                       # miss rate for overall accesses
system.l2.overall_miss_rate::.cpu.data       0.766205                       # miss rate for overall accesses
system.l2.overall_miss_rate::total           0.059387                       # miss rate for overall accesses
system.l2.demand_avg_miss_latency::.cpu.inst 76380.116959                       # average overall miss latency
system.l2.demand_avg_miss_latency::.cpu.data 82479.367619                       # average overall miss latency
system.l2.demand_avg_miss_latency::total 82406.634278                       # average overall miss latency
system.l2.overall_avg_miss_latency::.cpu.inst 76380.116959                       # average overall miss latency
system.l2.overall_avg_miss_latency::.cpu.data 82479.367619                       # average overall miss latency
system.l2.overall_avg_miss_latency::total 82406.634278                       # average overall miss latency
system.l2.blocked_cycles::no_mshrs                  0                       # number of cycles access was blocked
system.l2.blocked_cycles::no_targets                0                       # number of cycles access was blocked
system.l2.blocked::no_mshrs                         0                       # number of cycles access was blocked
system.l2.blocked::no_targets                       0                       # number of cycles access was blocked
system.l2.avg_blocked_cycles::no_mshrs            nan                       # average number of cycles each access was blocked
system.l2.avg_blocked_cycles::no_targets          nan                       # average number of cycles each access was blocked
system.l2.writebacks::.writebacks               26039                       # number of writebacks
system.l2.writebacks::total                     26039                       # number of writebacks
system.l2.demand_mshr_hits::.cpu.inst               1                       # number of demand (read+write) MSHR hits
system.l2.demand_mshr_hits::.cpu.data               5                       # number of demand (read+write) MSHR hits
system.l2.demand_mshr_hits::total                   6                       # number of demand (read+write) MSHR hits
system.l2.overall_mshr_hits::.cpu.inst              1                       # number of overall MSHR hits
system.l2.overall_mshr_hits::.cpu.data              5                       # number of overall MSHR hits
system.l2.overall_mshr_hits::total                  6                       # number of overall MSHR hits
system.l2.demand_mshr_misses::.cpu.inst           512                       # number of demand (read+write) MSHR misses
system.l2.demand_mshr_misses::.cpu.data         42501                       # number of demand (read+write) MSHR misses
system.l2.demand_mshr_misses::total             43013                       # number of demand (read+write) MSHR misses
system.l2.overall_mshr_misses::.cpu.inst          512                       # number of overall MSHR misses
system.l2.overall_mshr_misses::.cpu.data        42501                       # number of overall MSHR misses
system.l2.overall_mshr_misses::total            43013                       # number of overall MSHR misses
system.l2.demand_mshr_miss_latency::.cpu.inst     33998500                       # number of demand (read+write) MSHR miss cycles
system.l2.demand_mshr_miss_latency::.cpu.data   3080531000                       # number of demand (read+write) MSHR miss cycles
system.l2.demand_mshr_miss_latency::total   3114529500                       # number of demand (read+write) MSHR miss cycles
system.l2.overall_mshr_miss_latency::.cpu.inst     33998500                       # number of overall MSHR miss cycles
system.l2.overall_mshr_miss_latency::.cpu.data   3080531000                       # number of overall MSHR miss cycles
system.l2.overall_mshr_miss_latency::total   3114529500                       # number of overall MSHR miss cycles
system.l2.demand_mshr_miss_rate::.cpu.inst     0.000765                       # mshr miss rate for demand accesses
system.l2.demand_mshr_miss_rate::.cpu.data     0.766115                       # mshr miss rate for demand accesses
system.l2.demand_mshr_miss_rate::total       0.059378                       # mshr miss rate for demand accesses
system.l2.overall_mshr_miss_rate::.cpu.inst     0.000765                       # mshr miss rate for overall accesses
system.l2.overall_mshr_miss_rate::.cpu.data     0.766115                       # mshr miss rate for overall accesses
system.l2.overall_mshr_miss_rate::total      0.059378                       # mshr miss rate for overall accesses
system.l2.demand_avg_mshr_miss_latency::.cpu.inst 66403.320312                       # average overall mshr miss latency
system.l2.demand_avg_mshr_miss_latency::.cpu.data 72481.376909                       # average overall mshr miss latency
system.l2.demand_avg_mshr_miss_latency::total 72409.027503                       # average overall mshr miss latency
system.l2.overall_avg_mshr_miss_latency::.cpu.inst 66403.320312                       # average overall mshr miss latency
system.l2.overall_avg_mshr_miss_latency::.cpu.data 72481.376909                       # average overall mshr miss latency
system.l2.overall_avg_mshr_miss_latency::total 72409.027503                       # average overall mshr miss latency
system.l2.replacements                          26642                       # number of replacements
system.l2.WritebackDirty_hits::.writebacks        50509                       # number of WritebackDirty hits
system.l2.WritebackDirty_hits::total            50509                       # number of WritebackDirty hits
system.l2.WritebackDirty_accesses::.writebacks        50509                       # number of WritebackDirty accesses(hits+misses)
system.l2.WritebackDirty_accesses::total        50509                       # number of WritebackDirty accesses(hits+misses)
system.l2.WritebackClean_hits::.writebacks       668504                       # number of WritebackClean hits
system.l2.WritebackClean_hits::total           668504                       # number of WritebackClean hits
system.l2.WritebackClean_accesses::.writebacks       668504                       # number of WritebackClean accesses(hits+misses)
system.l2.WritebackClean_accesses::total       668504                       # number of WritebackClean accesses(hits+misses)
system.l2.CleanEvict_mshr_misses::.writebacks            6                       # number of CleanEvict MSHR misses
system.l2.CleanEvict_mshr_misses::total             6                       # number of CleanEvict MSHR misses
system.l2.CleanEvict_mshr_miss_rate::.writebacks          inf                       # mshr miss rate for CleanEvict accesses
system.l2.CleanEvict_mshr_miss_rate::total          inf                       # mshr miss rate for CleanEvict accesses
system.l2.ReadExReq_hits::.cpu.data               123                       # number of ReadExReq hits
system.l2.ReadExReq_hits::total                   123                       # number of ReadExReq hits
system.l2.ReadExReq_misses::.cpu.data           38812                       # number of ReadExReq misses
system.l2.ReadExReq_misses::total               38812                       # number of ReadExReq misses
system.l2.ReadExReq_miss_latency::.cpu.data   3174514000                       # number of ReadExReq miss cycles
system.l2.ReadExReq_miss_latency::total    3174514000                       # number of ReadExReq miss cycles
system.l2.ReadExReq_accesses::.cpu.data         38935                       # number of ReadExReq accesses(hits+misses)
system.l2.ReadExReq_accesses::total             38935                       # number of ReadExReq accesses(hits+misses)
system.l2.ReadExReq_miss_rate::.cpu.data     0.996841                       # miss rate for ReadExReq accesses
system.l2.ReadExReq_miss_rate::total         0.996841                       # miss rate for ReadExReq accesses
system.l2.ReadExReq_avg_miss_latency::.cpu.data 81792.074616                       # average ReadExReq miss latency
system.l2.ReadExReq_avg_miss_latency::total 81792.074616                       # average ReadExReq miss latency
system.l2.ReadExReq_mshr_misses::.cpu.data        38812                       # number of ReadExReq MSHR misses
system.l2.ReadExReq_mshr_misses::total          38812                       # number of ReadExReq MSHR misses
system.l2.ReadExReq_mshr_miss_latency::.cpu.data   2786394000                       # number of ReadExReq MSHR miss cycles
system.l2.ReadExReq_mshr_miss_latency::total   2786394000                       # number of ReadExReq MSHR miss cycles
system.l2.ReadExReq_mshr_miss_rate::.cpu.data     0.996841                       # mshr miss rate for ReadExReq accesses
system.l2.ReadExReq_mshr_miss_rate::total     0.996841                       # mshr miss rate for ReadExReq accesses
system.l2.ReadExReq_avg_mshr_miss_latency::.cpu.data 71792.074616                       # average ReadExReq mshr miss latency
system.l2.ReadExReq_avg_mshr_miss_latency::total 71792.074616                       # average ReadExReq mshr miss latency
system.l2.ReadCleanReq_hits::.cpu.inst         668401                       # number of ReadCleanReq hits
system.l2.ReadCleanReq_hits::total             668401                       # number of ReadCleanReq hits
system.l2.ReadCleanReq_misses::.cpu.inst          513                       # number of ReadCleanReq misses
system.l2.ReadCleanReq_misses::total              513                       # number of ReadCleanReq misses
system.l2.ReadCleanReq_miss_latency::.cpu.inst     39183000                       # number of ReadCleanReq miss cycles
system.l2.ReadCleanReq_miss_latency::total     39183000                       # number of ReadCleanReq miss cycles
system.l2.ReadCleanReq_accesses::.cpu.inst       668914                       # number of ReadCleanReq accesses(hits+misses)
system.l2.ReadCleanReq_accesses::total         668914                       # number of ReadCleanReq accesses(hits+misses)
system.l2.ReadCleanReq_miss_rate::.cpu.inst     0.000767                       # miss rate for ReadCleanReq accesses
system.l2.ReadCleanReq_miss_rate::total      0.000767                       # miss rate for ReadCleanReq accesses
system.l2.ReadCleanReq_avg_miss_latency::.cpu.inst 76380.116959                       # average ReadCleanReq miss latency
system.l2.ReadCleanReq_avg_miss_latency::total 76380.116959                       # average ReadCleanReq miss latency
system.l2.ReadCleanReq_mshr_hits::.cpu.inst            1                       # number of ReadCleanReq MSHR hits
system.l2.ReadCleanReq_mshr_hits::total             1                       # number of ReadCleanReq MSHR hits
system.l2.ReadCleanReq_mshr_misses::.cpu.inst          512                       # number of ReadCleanReq MSHR misses
system.l2.ReadCleanReq_mshr_misses::total          512                       # number of ReadCleanReq MSHR misses
system.l2.ReadCleanReq_mshr_miss_latency::.cpu.inst     33998500                       # number of ReadCleanReq MSHR miss cycles
system.l2.ReadCleanReq_mshr_miss_latency::total     33998500                       # number of ReadCleanReq MSHR miss cycles
system.l2.ReadCleanReq_mshr_miss_rate::.cpu.inst     0.000765                       # mshr miss rate for ReadCleanReq accesses
system.l2.ReadCleanReq_mshr_miss_rate::total     0.000765                       # mshr miss rate for ReadCleanReq accesses
system.l2.ReadCleanReq_avg_mshr_miss_latency::.cpu.inst 66403.320312                       # average ReadCleanReq mshr miss latency
system.l2.ReadCleanReq_avg_mshr_miss_latency::total 66403.320312                       # average ReadCleanReq mshr miss latency
system.l2.ReadSharedReq_hits::.cpu.data         12847                       # number of ReadSharedReq hits
system.l2.ReadSharedReq_hits::total             12847                       # number of ReadSharedReq hits
system.l2.ReadSharedReq_misses::.cpu.data         3694                       # number of ReadSharedReq misses
system.l2.ReadSharedReq_misses::total            3694                       # number of ReadSharedReq misses
system.l2.ReadSharedReq_miss_latency::.cpu.data    331354000                       # number of ReadSharedReq miss cycles
system.l2.ReadSharedReq_miss_latency::total    331354000                       # number of ReadSharedReq miss cycles
system.l2.ReadSharedReq_accesses::.cpu.data        16541                       # number of ReadSharedReq accesses(hits+misses)
system.l2.ReadSharedReq_accesses::total         16541                       # number of ReadSharedReq accesses(hits+misses)
system.l2.ReadSharedReq_miss_rate::.cpu.data     0.223324                       # miss rate for ReadSharedReq accesses
system.l2.ReadSharedReq_miss_rate::total     0.223324                       # miss rate for ReadSharedReq accesses
system.l2.ReadSharedReq_avg_miss_latency::.cpu.data 89700.595560                       # average ReadSharedReq miss latency
system.l2.ReadSharedReq_avg_miss_latency::total 89700.595560                       # average ReadSharedReq miss latency
system.l2.ReadSharedReq_mshr_hits::.cpu.data            5                       # number of ReadSharedReq MSHR hits
system.l2.ReadSharedReq_mshr_hits::total            5                       # number of ReadSharedReq MSHR hits
system.l2.ReadSharedReq_mshr_misses::.cpu.data         3689                       # number of ReadSharedReq MSHR misses
system.l2.ReadSharedReq_mshr_misses::total         3689                       # number of ReadSharedReq MSHR misses
system.l2.ReadSharedReq_mshr_miss_latency::.cpu.data    294137000                       # number of ReadSharedReq MSHR miss cycles
system.l2.ReadSharedReq_mshr_miss_latency::total    294137000                       # number of ReadSharedReq MSHR miss cycles
system.l2.ReadSharedReq_mshr_miss_rate::.cpu.data     0.223022                       # mshr miss rate for ReadSharedReq accesses
system.l2.ReadSharedReq_mshr_miss_rate::total     0.223022                       # mshr miss rate for ReadSharedReq accesses
system.l2.ReadSharedReq_avg_mshr_miss_latency::.cpu.data 79733.532123                       # average ReadSharedReq mshr miss latency
system.l2.ReadSharedReq_avg_mshr_miss_latency::total 79733.532123                       # average ReadSharedReq mshr miss latency
system.l2.tags.pwrStateResidencyTicks::UNDEFINED  65181467500                       # Cumulative time (in ticks) in various power states
system.l2.tags.tagsinuse                 15554.854281                       # Cycle average of tags in use
system.l2.tags.total_refs                     1447316                       # Total number of references to valid blocks.
system.l2.tags.sampled_refs                     43026                       # Sample count of references to valid blocks.
system.l2.tags.avg_refs                     33.638172                       # Average number of references to valid blocks.
system.l2.tags.warmup_cycle                     77000                       # Cycle when the warmup percentage was hit.
system.l2.tags.occ_blocks::.writebacks       5.788224                       # Average occupied blocks per requestor
system.l2.tags.occ_blocks::.cpu.inst        76.480860                       # Average occupied blocks per requestor
system.l2.tags.occ_blocks::.cpu.data     15472.585197                       # Average occupied blocks per requestor
system.l2.tags.occ_percent::.writebacks      0.000353                       # Average percentage of cache occupancy
system.l2.tags.occ_percent::.cpu.inst        0.004668                       # Average percentage of cache occupancy
system.l2.tags.occ_percent::.cpu.data        0.944372                       # Average percentage of cache occupancy
system.l2.tags.occ_percent::total            0.949393                       # Average percentage of cache occupancy
system.l2.tags.occ_task_id_blocks::1024         16384                       # Occupied blocks per task id
system.l2.tags.age_task_id_blocks_1024::0            3                       # Occupied blocks per task id
system.l2.tags.age_task_id_blocks_1024::1           31                       # Occupied blocks per task id
system.l2.tags.age_task_id_blocks_1024::2          449                       # Occupied blocks per task id
system.l2.tags.age_task_id_blocks_1024::3         4008                       # Occupied blocks per task id
system.l2.tags.age_task_id_blocks_1024::4        11893                       # Occupied blocks per task id
system.l2.tags.occ_task_id_percent::1024            1                       # Percentage of cache occupancy per task id
system.l2.tags.tag_accesses                  46357522                       # Number of tag accesses
system.l2.tags.data_accesses                 46357522                       # Number of data accesses
system.cpu_voltage_domain.voltage                   1                       # Voltage in Volts
system.mem_ctrls.pwrStateResidencyTicks::UNDEFINED  65181467500                       # Cumulative time (in ticks) in various power states
system.mem_ctrls.bytes_read::.cpu.inst          32768                       # Number of bytes read from this memory
system.mem_ctrls.bytes_read::.cpu.data        2720064                       # Number of bytes read from this memory
system.mem_ctrls.bytes_read::total            2752832                       # Number of bytes read from this memory
system.mem_ctrls.bytes_inst_read::.cpu.inst        32768                       # Number of instructions bytes read from this memory
system.mem_ctrls.bytes_inst_read::total         32768                       # Number of instructions bytes read from this memory
system.mem_ctrls.bytes_written::.writebacks      1666496                       # Number of bytes written to this memory
system.mem_ctrls.bytes_written::total         1666496                       # Number of bytes written to this memory
system.mem_ctrls.num_reads::.cpu.inst             512                       # Number of read requests responded to by this memory
system.mem_ctrls.num_reads::.cpu.data           42501                       # Number of read requests responded to by this memory
system.mem_ctrls.num_reads::total               43013                       # Number of read requests responded to by this memory
system.mem_ctrls.num_writes::.writebacks        26039                       # Number of write requests responded to by this memory
system.mem_ctrls.num_writes::total              26039                       # Number of write requests responded to by this memory
system.mem_ctrls.bw_read::.cpu.inst            502720                       # Total read bandwidth from this memory (bytes/s)
system.mem_ctrls.bw_read::.cpu.data          41730635                       # Total read bandwidth from this memory (bytes/s)
system.mem_ctrls.bw_read::total              42233354                       # Total read bandwidth from this memory (bytes/s)
system.mem_ctrls.bw_inst_read::.cpu.inst       502720                       # Instruction read bandwidth from this memory (bytes/s)
system.mem_ctrls.bw_inst_read::total           502720                       # Instruction read bandwidth from this memory (bytes/s)
system.mem_ctrls.bw_write::.writebacks       25567022                       # Write bandwidth from this memory (bytes/s)
system.mem_ctrls.bw_write::total             25567022                       # Write bandwidth from this memory (bytes/s)
system.mem_ctrls.bw_total::.writebacks       25567022                       # Total bandwidth to/from this memory (bytes/s)
system.mem_ctrls.bw_total::.cpu.inst           502720                       # Total bandwidth to/from this memory (bytes/s)
system.mem_ctrls.bw_total::.cpu.data         41730635                       # Total bandwidth to/from this memory (bytes/s)
system.mem_ctrls.bw_total::total             67800376                       # Total bandwidth to/from this memory (bytes/s)
system.mem_ctrls.avgPriority_.writebacks::samples     26039.00                       # Average QoS priority value for accepted requests
system.mem_ctrls.avgPriority_.cpu.inst::samples       512.00                       # Average QoS priority value for accepted requests
system.mem_ctrls.avgPriority_.cpu.data::samples     42492.00                       # Average QoS priority value for accepted requests
system.mem_ctrls.priorityMinLatency      0.000000018750                       # per QoS priority minimum request to response latency (s)
system.mem_ctrls.priorityMaxLatency      0.001007744500                       # per QoS priority maximum request to response latency (s)
system.mem_ctrls.numReadWriteTurnArounds         1451                       # Number of turnarounds from READ to WRITE
system.mem_ctrls.numWriteReadTurnArounds         1451                       # Number of turnarounds from WRITE to READ
system.mem_ctrls.numStayReadState              128522                       # Number of times bus staying in READ state
system.mem_ctrls.numStayWriteState              24583                       # Number of times bus staying in WRITE state
system.mem_ctrls.readReqs                       43013                       # Number of read requests accepted
system.mem_ctrls.writeReqs                      26039                       # Number of write requests accepted
system.mem_ctrls.readBursts                     43013                       # Number of DRAM read bursts, including those serviced by the write queue
system.mem_ctrls.writeBursts                    26039                       # Number of DRAM write bursts, including those merged in the write queue
system.mem_ctrls.servicedByWrQ                      9                       # Number of DRAM read bursts serviced by the write queue
system.mem_ctrls.mergedWrBursts                     0                       # Number of DRAM write bursts merged with an existing one
system.mem_ctrls.neitherReadNorWriteReqs            0                       # Number of requests that are neither read nor write
system.mem_ctrls.perBankRdBursts::0              2676                       # Per bank write bursts
system.mem_ctrls.perBankRdBursts::1              2548                       # Per bank write bursts
system.mem_ctrls.perBankRdBursts::2              2535                       # Per bank write bursts
system.mem_ctrls.perBankRdBursts::3              2788                       # Per bank write bursts
system.mem_ctrls.perBankRdBursts::4              2869                       # Per bank write bursts
system.mem_ctrls.perBankRdBursts::5              2655                       # Per bank write bursts
system.mem_ctrls.perBankRdBursts::6              2661                       # Per bank write bursts
system.mem_ctrls.perBankRdBursts::7              2682                       # Per bank write bursts
system.mem_ctrls.perBankRdBursts::8              2683                       # Per bank write bursts
system.mem_ctrls.perBankRdBursts::9              2686                       # Per bank write bursts
system.mem_ctrls.perBankRdBursts::10             2665                       # Per bank write bursts
system.mem_ctrls.perBankRdBursts::11             2702                       # Per bank write bursts
system.mem_ctrls.perBankRdBursts::12             2737                       # Per bank write bursts
system.mem_ctrls.perBankRdBursts::13             2672                       # Per bank write bursts
system.mem_ctrls.perBankRdBursts::14             2746                       # Per bank write bursts
system.mem_ctrls.perBankRdBursts::15             2699                       # Per bank write bursts
system.mem_ctrls.perBankWrBursts::0              1610                       # Per bank write bursts
system.mem_ctrls.perBankWrBursts::1              1547                       # Per bank write bursts
system.mem_ctrls.perBankWrBursts::2              1544                       # Per bank write bursts
system.mem_ctrls.perBankWrBursts::3              1688                       # Per bank write bursts
system.mem_ctrls.perBankWrBursts::4              1787                       # Per bank write bursts
system.mem_ctrls.perBankWrBursts::5              1640                       # Per bank write bursts
system.mem_ctrls.perBankWrBursts::6              1644                       # Per bank write bursts
system.mem_ctrls.perBankWrBursts::7              1661                       # Per bank write bursts
system.mem_ctrls.perBankWrBursts::8              1656                       # Per bank write bursts
system.mem_ctrls.perBankWrBursts::9              1588                       # Per bank write bursts
system.mem_ctrls.perBankWrBursts::10             1586                       # Per bank write bursts
system.mem_ctrls.perBankWrBursts::11             1608                       # Per bank write bursts
system.mem_ctrls.perBankWrBursts::12             1644                       # Per bank write bursts
system.mem_ctrls.perBankWrBursts::13             1588                       # Per bank write bursts
system.mem_ctrls.perBankWrBursts::14             1611                       # Per bank write bursts
system.mem_ctrls.perBankWrBursts::15             1620                       # Per bank write bursts
system.mem_ctrls.avgRdQLen                       1.04                       # Average read queue length when enqueuing
system.mem_ctrls.avgWrQLen                      21.98                       # Average write queue length when enqueuing
system.mem_ctrls.totQLat                    541774750                       # Total ticks spent queuing
system.mem_ctrls.totBusLat                  215020000                       # Total ticks spent in databus transfers
system.mem_ctrls.totMemAccLat              1348099750                       # Total ticks spent from burst creation until serviced by the DRAM
system.mem_ctrls.avgQLat                     12598.24                       # Average queueing delay per DRAM burst
system.mem_ctrls.avgBusLat                    5000.00                       # Average bus latency per DRAM burst
system.mem_ctrls.avgMemAccLat                31348.24                       # Average memory access latency per DRAM burst
system.mem_ctrls.numRdRetry                         0                       # Number of times read queue was full causing retry
system.mem_ctrls.numWrRetry                         0                       # Number of times write queue was full causing retry
system.mem_ctrls.readRowHits                    27040                       # Number of row buffer hits during reads
system.mem_ctrls.writeRowHits                   17869                       # Number of row buffer hits during writes
system.mem_ctrls.readRowHitRate                 62.88                       # Row buffer hit rate for reads
system.mem_ctrls.writeRowHitRate                68.62                       # Row buffer hit rate for writes
system.mem_ctrls.readPktSize::0                     0                       # Read request sizes (log2)
system.mem_ctrls.readPktSize::1                     0                       # Read request sizes (log2)
system.mem_ctrls.readPktSize::2                     0                       # Read request sizes (log2)
system.mem_ctrls.readPktSize::3                     0                       # Read request sizes (log2)
system.mem_ctrls.readPktSize::4                     0                       # Read request sizes (log2)
system.mem_ctrls.readPktSize::5                     0                       # Read request sizes (log2)
system.mem_ctrls.readPktSize::6                 43013                       # Read request sizes (log2)
system.mem_ctrls.writePktSize::0                    0                       # Write request sizes (log2)
system.mem_ctrls.writePktSize::1                    0                       # Write request sizes (log2)
system.mem_ctrls.writePktSize::2                    0                       # Write request sizes (log2)
system.mem_ctrls.writePktSize::3                    0                       # Write request sizes (log2)
system.mem_ctrls.writePktSize::4                    0                       # Write request sizes (log2)
system.mem_ctrls.writePktSize::5                    0                       # Write request sizes (log2)
system.mem_ctrls.writePktSize::6                26039                       # Write request sizes (log2)
system.mem_ctrls.rdQLenPdf::0                   41723                       # What read queue length does an incoming req see
system.mem_ctrls.rdQLenPdf::1                    1274                       # What read queue length does an incoming req see
system.mem_ctrls.rdQLenPdf::2                       7                       # What read queue length does an incoming req see
system.mem_ctrls.rdQLenPdf::3                       0                       # What read queue length does an incoming req see
system.mem_ctrls.rdQLenPdf::4                       0                       # What read queue length does an incoming req see
system.mem_ctrls.rdQLenPdf::5                       0                       # What read queue length does an incoming req see
system.mem_ctrls.rdQLenPdf::6                       0                       # What read queue length does an incoming req see
system.mem_ctrls.rdQLenPdf::7                       0                       # What read queue length does an incoming req see
system.mem_ctrls.rdQLenPdf::8                       0                       # What read queue length does an incoming req see
system.mem_ctrls.rdQLenPdf::9                       0                       # What read queue length does an incoming req see
system.mem_ctrls.rdQLenPdf::10                      0                       # What read queue length does an incoming req see
system.mem_ctrls.rdQLenPdf::11                      0                       # What read queue length does an incoming req see
system.mem_ctrls.rdQLenPdf::12                      0                       # What read queue length does an incoming req see
system.mem_ctrls.rdQLenPdf::13                      0                       # What read queue length does an incoming req see
system.mem_ctrls.rdQLenPdf::14                      0                       # What read queue length does an incoming req see
system.mem_ctrls.rdQLenPdf::15                      0                       # What read queue length does an incoming req see
system.mem_ctrls.rdQLenPdf::16                      0                       # What read queue length does an incoming req see
system.mem_ctrls.rdQLenPdf::17                      0                       # What read queue length does an incoming req see
system.mem_ctrls.rdQLenPdf::18                      0                       # What read queue length does an incoming req see
system.mem_ctrls.rdQLenPdf::19                      0                       # What read queue length does an incoming req see
system.mem_ctrls.rdQLenPdf::20                      0                       # What read queue length does an incoming req see
system.mem_ctrls.rdQLenPdf::21                      0                       # What read queue length does an incoming req see
system.mem_ctrls.rdQLenPdf::22                      0                       # What read queue length does an incoming req see
system.mem_ctrls.rdQLenPdf::23                      0                       # What read queue length does an incoming req see
system.mem_ctrls.rdQLenPdf::24                      0                       # What read queue length does an incoming req see
system.mem_ctrls.rdQLenPdf::25                      0                       # What read queue length does an incoming req see
system.mem_ctrls.rdQLenPdf::26                      0                       # What read queue length does an incoming req see
system.mem_ctrls.rdQLenPdf::27                      0                       # What read queue length does an incoming req see
system.mem_ctrls.rdQLenPdf::28                      0                       # What read queue length does an incoming req see
system.mem_ctrls.rdQLenPdf::29                      0                       # What read queue length does an incoming req see
system.mem_ctrls.rdQLenPdf::30                      0                       # What read queue length does an incoming req see
system.mem_ctrls.rdQLenPdf::31                      0                       # What read queue length does an incoming req see
system.mem_ctrls.wrQLenPdf::0                       1                       # What write queue length does an incoming req see
system.mem_ctrls.wrQLenPdf::1                       1                       # What write queue length does an incoming req see
system.mem_ctrls.wrQLenPdf::2                       1                       # What write queue length does an incoming req see
system.mem_ctrls.wrQLenPdf::3                       1                       # What write queue length does an incoming req see
system.mem_ctrls.wrQLenPdf::4                       1                       # What write queue length does an incoming req see
system.mem_ctrls.wrQLenPdf::5                       1                       # What write queue length does an incoming req see
system.mem_ctrls.wrQLenPdf::6                       1                       # What write queue length does an incoming req see
system.mem_ctrls.wrQLenPdf::7                       1                       # What write queue length does an incoming req see
system.mem_ctrls.wrQLenPdf::8                       1                       # What write queue length does an incoming req see
system.mem_ctrls.wrQLenPdf::9                       1                       # What write queue length does an incoming req see
system.mem_ctrls.wrQLenPdf::10                      1                       # What write queue length does an incoming req see
system.mem_ctrls.wrQLenPdf::11                      1                       # What write queue length does an incoming req see
system.mem_ctrls.wrQLenPdf::12                      1                       # What write queue length does an incoming req see
system.mem_ctrls.wrQLenPdf::13                      1                       # What write queue length does an incoming req see
system.mem_ctrls.wrQLenPdf::14                      1                       # What write queue length does an incoming req see
system.mem_ctrls.wrQLenPdf::15                   1345                       # What write queue length does an incoming req see
system.mem_ctrls.wrQLenPdf::16                   1360                       # What write queue length does an incoming req see
system.mem_ctrls.wrQLenPdf::17                   1452                       # What write queue length does an incoming req see
system.mem_ctrls.wrQLenPdf::18                   1451                       # What write queue length does an incoming req see
system.mem_ctrls.wrQLenPdf::19                   1451                       # What write queue length does an incoming req see
system.mem_ctrls.wrQLenPdf::20                   1457                       # What write queue length does an incoming req see
system.mem_ctrls.wrQLenPdf::21                   1454                       # What write queue length does an incoming req see
system.mem_ctrls.wrQLenPdf::22                   1453                       # What write queue length does an incoming req see
system.mem_ctrls.wrQLenPdf::23                   1465                       # What write queue length does an incoming req see
system.mem_ctrls.wrQLenPdf::24                   1469                       # What write queue length does an incoming req see
system.mem_ctrls.wrQLenPdf::25                   1453                       # What write queue length does an incoming req see
system.mem_ctrls.wrQLenPdf::26                   1482                       # What write queue length does an incoming req see
system.mem_ctrls.wrQLenPdf::27                   1454                       # What write queue length does an incoming req see
system.mem_ctrls.wrQLenPdf::28                   1463                       # What write queue length does an incoming req see
system.mem_ctrls.wrQLenPdf::29                   1461                       # What write queue length does an incoming req see
system.mem_ctrls.wrQLenPdf::30                   1452                       # What write queue length does an incoming req see
system.mem_ctrls.wrQLenPdf::31                   1451                       # What write queue length does an incoming req see
system.mem_ctrls.wrQLenPdf::32                   1451                       # What write queue length does an incoming req see
system.mem_ctrls.wrQLenPdf::33                      0                       # What write queue length does an incoming req see
system.mem_ctrls.wrQLenPdf::34                      0                       # What write queue length does an incoming req see
system.mem_ctrls.wrQLenPdf::35                      0                       # What write queue length does an incoming req see
system.mem_ctrls.wrQLenPdf::36                      0                       # What write queue length does an incoming req see
system.mem_ctrls.wrQLenPdf::37                      0                       # What write queue length does an incoming req see
system.mem_ctrls.wrQLenPdf::38                      0                       # What write queue length does an incoming req see
system.mem_ctrls.wrQLenPdf::39                      0                       # What write queue length does an incoming req see
system.mem_ctrls.wrQLenPdf::40                      0                       # What write queue length does an incoming req see
system.mem_ctrls.wrQLenPdf::41                      0                       # What write queue length does an incoming req see
system.mem_ctrls.wrQLenPdf::42                      0                       # What write queue length does an incoming req see
system.mem_ctrls.wrQLenPdf::43                      0                       # What write queue length does an incoming req see
system.mem_ctrls.wrQLenPdf::44                      0                       # What write queue length does an incoming req see
system.mem_ctrls.wrQLenPdf::45                      0                       # What write queue length does an incoming req see
system.mem_ctrls.wrQLenPdf::46                      0                       # What write queue length does an incoming req see
system.mem_ctrls.wrQLenPdf::47                      0                       # What write queue length does an incoming req see
system.mem_ctrls.wrQLenPdf::48                      0                       # What write queue length does an incoming req see
system.mem_ctrls.wrQLenPdf::49                      0                       # What write queue length does an incoming req see
system.mem_ctrls.wrQLenPdf::50                      0                       # What write queue length does an incoming req see
system.mem_ctrls.wrQLenPdf::51                      0                       # What write queue length does an incoming req see
system.mem_ctrls.wrQLenPdf::52                      0                       # What write queue length does an incoming req see
system.mem_ctrls.wrQLenPdf::53                      0                       # What write queue length does an incoming req see
system.mem_ctrls.wrQLenPdf::54                      0                       # What write queue length does an incoming req see
system.mem_ctrls.wrQLenPdf::55                      0                       # What write queue length does an incoming req see
system.mem_ctrls.wrQLenPdf::56                      0                       # What write queue length does an incoming req see
system.mem_ctrls.wrQLenPdf::57                      0                       # What write queue length does an incoming req see
system.mem_ctrls.wrQLenPdf::58                      0                       # What write queue length does an incoming req see
system.mem_ctrls.wrQLenPdf::59                      0                       # What write queue length does an incoming req see
system.mem_ctrls.wrQLenPdf::60                      0                       # What write queue length does an incoming req see
system.mem_ctrls.wrQLenPdf::61                      0                       # What write queue length does an incoming req see
system.mem_ctrls.wrQLenPdf::62                      0                       # What write queue length does an incoming req see
system.mem_ctrls.wrQLenPdf::63                      0                       # What write queue length does an incoming req see
system.mem_ctrls.bytesPerActivate::samples        24116                       # Bytes accessed per row activation
system.mem_ctrls.bytesPerActivate::mean    183.181290                       # Bytes accessed per row activation
system.mem_ctrls.bytesPerActivate::gmean   140.932961                       # Bytes accessed per row activation
system.mem_ctrls.bytesPerActivate::stdev   152.368003                       # Bytes accessed per row activation
system.mem_ctrls.bytesPerActivate::0-127         8356     34.65%     34.65% # Bytes accessed per row activation
system.mem_ctrls.bytesPerActivate::128-255        10238     42.45%     77.10% # Bytes accessed per row activation
system.mem_ctrls.bytesPerActivate::256-383         3077     12.76%     89.86% # Bytes accessed per row activation
system.mem_ctrls.bytesPerActivate::384-511          958      3.97%     93.83% # Bytes accessed per row activation
system.mem_ctrls.bytesPerActivate::512-639         1008      4.18%     98.01% # Bytes accessed per row activation
system.mem_ctrls.bytesPerActivate::640-767          193      0.80%     98.81% # Bytes accessed per row activation
system.mem_ctrls.bytesPerActivate::768-895          110      0.46%     99.27% # Bytes accessed per row activation
system.mem_ctrls.bytesPerActivate::896-1023           76      0.32%     99.59% # Bytes accessed per row activation
system.mem_ctrls.bytesPerActivate::1024-1151          100      0.41%    100.00% # Bytes accessed per row activation
system.mem_ctrls.bytesPerActivate::total        24116                       # Bytes accessed per row activation
system.mem_ctrls.rdPerTurnAround::samples         1451                       # Reads before turning the bus around for writes
system.mem_ctrls.rdPerTurnAround::mean      29.636113                       # Reads before turning the bus around for writes
system.mem_ctrls.rdPerTurnAround::gmean     18.282240                       # Reads before turning the bus around for writes
system.mem_ctrls.rdPerTurnAround::stdev    429.517444                       # Reads before turning the bus around for writes
system.mem_ctrls.rdPerTurnAround::0-511          1450     99.93%     99.93% # Reads before turning the bus around for writes
system.mem_ctrls.rdPerTurnAround::15872-16383            1      0.07%    100.00% # Reads before turning the bus around for writes
[...]
system.cpu.icache.ReadReq_mshr_miss_latency::.cpu.inst   8060780500                       # number of ReadReq MSHR miss cycles
system.cpu.icache.ReadReq_mshr_miss_latency::total   8060780500                       # number of ReadReq MSHR miss cycles
system.cpu.icache.ReadReq_mshr_miss_rate::.cpu.inst     0.023612                       # mshr miss rate for ReadReq accesses
system.cpu.icache.ReadReq_mshr_miss_rate::total     0.023612                       # mshr miss rate for ReadReq accesses
system.cpu.icache.ReadReq_avg_mshr_miss_latency::.cpu.inst 12050.548352                       # average ReadReq mshr miss latency
system.cpu.icache.ReadReq_avg_mshr_miss_latency::total 12050.548352                       # average ReadReq mshr miss latency
system.cpu.icache.tags.pwrStateResidencyTicks::UNDEFINED  65181467500                       # Cumulative time (in ticks) in various power states
system.cpu.icache.tags.tagsinuse           397.678818                       # Cycle average of tags in use
system.cpu.icache.tags.total_refs            28329382                       # Total number of references to valid blocks.
system.cpu.icache.tags.sampled_refs            668913                       # Sample count of references to valid blocks.
system.cpu.icache.tags.avg_refs             42.351370                       # Average number of references to valid blocks.
system.cpu.icache.tags.warmup_cycle             87500                       # Cycle when the warmup percentage was hit.
system.cpu.icache.tags.occ_blocks::.cpu.inst   397.678818                       # Average occupied blocks per requestor
system.cpu.icache.tags.occ_percent::.cpu.inst     0.776716                       # Average percentage of cache occupancy
system.cpu.icache.tags.occ_percent::total     0.776716                       # Average percentage of cache occupancy
system.cpu.icache.tags.occ_task_id_blocks::1024          398                       # Occupied blocks per task id
system.cpu.icache.tags.age_task_id_blocks_1024::0           10                       # Occupied blocks per task id
system.cpu.icache.tags.age_task_id_blocks_1024::2            4                       # Occupied blocks per task id
system.cpu.icache.tags.age_task_id_blocks_1024::3            1                       # Occupied blocks per task id
system.cpu.icache.tags.age_task_id_blocks_1024::4          383                       # Occupied blocks per task id
system.cpu.icache.tags.occ_task_id_percent::1024     0.777344                       # Percentage of cache occupancy per task id
system.cpu.icache.tags.tag_accesses          57327679                       # Number of tag accesses
system.cpu.icache.tags.data_accesses         57327679                       # Number of data accesses
system.cpu.dtb.walker.pwrStateResidencyTicks::UNDEFINED  65181467500                       # Cumulative time (in ticks) in various power states
system.cpu.dtb.stage2_mmu.stage2_tlb.walker.pwrStateResidencyTicks::UNDEFINED  65181467500                       # Cumulative time (in ticks) in various power states
system.cpu.dcache.pwrStateResidencyTicks::UNDEFINED  65181467500                       # Cumulative time (in ticks) in various power states
system.cpu.dcache.demand_hits::.cpu.data     35656670                       # number of demand (read+write) hits
system.cpu.dcache.demand_hits::total         35656670                       # number of demand (read+write) hits
system.cpu.dcache.overall_hits::.cpu.data     35659996                       # number of overall hits
system.cpu.dcache.overall_hits::total        35659996                       # number of overall hits
system.cpu.dcache.demand_misses::.cpu.data        75305                       # number of demand (read+write) misses
system.cpu.dcache.demand_misses::total          75305                       # number of demand (read+write) misses
system.cpu.dcache.overall_misses::.cpu.data        75340                       # number of overall misses
system.cpu.dcache.overall_misses::total         75340                       # number of overall misses
system.cpu.dcache.demand_miss_latency::.cpu.data   4921892500                       # number of demand (read+write) miss cycles
system.cpu.dcache.demand_miss_latency::total   4921892500                       # number of demand (read+write) miss cycles
system.cpu.dcache.overall_miss_latency::.cpu.data   4921892500                       # number of overall miss cycles
system.cpu.dcache.overall_miss_latency::total   4921892500                       # number of overall miss cycles
system.cpu.dcache.demand_accesses::.cpu.data     35731975                       # number of demand (read+write) accesses
system.cpu.dcache.demand_accesses::total     35731975                       # number of demand (read+write) accesses
system.cpu.dcache.overall_accesses::.cpu.data     35735336                       # number of overall (read+write) accesses
system.cpu.dcache.overall_accesses::total     35735336                       # number of overall (read+write) accesses
system.cpu.dcache.demand_miss_rate::.cpu.data     0.002107                       # miss rate for demand accesses
system.cpu.dcache.demand_miss_rate::total     0.002107                       # miss rate for demand accesses
system.cpu.dcache.overall_miss_rate::.cpu.data     0.002108                       # miss rate for overall accesses
system.cpu.dcache.overall_miss_rate::total     0.002108                       # miss rate for overall accesses
system.cpu.dcache.demand_avg_miss_latency::.cpu.data 65359.438284                       # average overall miss latency
system.cpu.dcache.demand_avg_miss_latency::total 65359.438284                       # average overall miss latency
system.cpu.dcache.overall_avg_miss_latency::.cpu.data 65329.074861                       # average overall miss latency
system.cpu.dcache.overall_avg_miss_latency::total 65329.074861                       # average overall miss latency
system.cpu.dcache.blocked_cycles::no_mshrs            0                       # number of cycles access was blocked
system.cpu.dcache.blocked_cycles::no_targets            0                       # number of cycles access was blocked
system.cpu.dcache.blocked::no_mshrs                 0                       # number of cycles access was blocked
system.cpu.dcache.blocked::no_targets               0                       # number of cycles access was blocked
system.cpu.dcache.avg_blocked_cycles::no_mshrs          nan                       # average number of cycles each access was blocked
system.cpu.dcache.avg_blocked_cycles::no_targets          nan                       # average number of cycles each access was blocked
system.cpu.dcache.writebacks::.writebacks        50509                       # number of writebacks
system.cpu.dcache.writebacks::total             50509                       # number of writebacks
system.cpu.dcache.demand_mshr_hits::.cpu.data        19858                       # number of demand (read+write) MSHR hits
system.cpu.dcache.demand_mshr_hits::total        19858                       # number of demand (read+write) MSHR hits
system.cpu.dcache.overall_mshr_hits::.cpu.data        19858                       # number of overall MSHR hits
system.cpu.dcache.overall_mshr_hits::total        19858                       # number of overall MSHR hits
system.cpu.dcache.demand_mshr_misses::.cpu.data        55447                       # number of demand (read+write) MSHR misses
system.cpu.dcache.demand_mshr_misses::total        55447                       # number of demand (read+write) MSHR misses
system.cpu.dcache.overall_mshr_misses::.cpu.data        55476                       # number of overall MSHR misses
system.cpu.dcache.overall_mshr_misses::total        55476                       # number of overall MSHR misses
system.cpu.dcache.demand_mshr_miss_latency::.cpu.data   3723919000                       # number of demand (read+write) MSHR miss cycles
system.cpu.dcache.demand_mshr_miss_latency::total   3723919000                       # number of demand (read+write) MSHR miss cycles
system.cpu.dcache.overall_mshr_miss_latency::.cpu.data   3725282000                       # number of overall MSHR miss cycles
system.cpu.dcache.overall_mshr_miss_latency::total   3725282000                       # number of overall MSHR miss cycles
system.cpu.dcache.demand_mshr_miss_rate::.cpu.data     0.001552                       # mshr miss rate for demand accesses
system.cpu.dcache.demand_mshr_miss_rate::total     0.001552                       # mshr miss rate for demand accesses
system.cpu.dcache.overall_mshr_miss_rate::.cpu.data     0.001552                       # mshr miss rate for overall accesses
system.cpu.dcache.overall_mshr_miss_rate::total     0.001552                       # mshr miss rate for overall accesses
system.cpu.dcache.demand_avg_mshr_miss_latency::.cpu.data 67161.776111                       # average overall mshr miss latency
system.cpu.dcache.demand_avg_mshr_miss_latency::total 67161.776111                       # average overall mshr miss latency
system.cpu.dcache.overall_avg_mshr_miss_latency::.cpu.data 67151.236571                       # average overall mshr miss latency
system.cpu.dcache.overall_avg_mshr_miss_latency::total 67151.236571                       # average overall mshr miss latency
system.cpu.dcache.replacements                  54452                       # number of replacements
system.cpu.dcache.ReadReq_hits::.cpu.data     21457486                       # number of ReadReq hits
system.cpu.dcache.ReadReq_hits::total        21457486                       # number of ReadReq hits
system.cpu.dcache.ReadReq_misses::.cpu.data        19738                       # number of ReadReq misses
system.cpu.dcache.ReadReq_misses::total         19738                       # number of ReadReq misses
system.cpu.dcache.ReadReq_miss_latency::.cpu.data    559692500                       # number of ReadReq miss cycles
system.cpu.dcache.ReadReq_miss_latency::total    559692500                       # number of ReadReq miss cycles
system.cpu.dcache.ReadReq_accesses::.cpu.data     21477224                       # number of ReadReq accesses(hits+misses)
system.cpu.dcache.ReadReq_accesses::total     21477224                       # number of ReadReq accesses(hits+misses)
system.cpu.dcache.ReadReq_miss_rate::.cpu.data     0.000919                       # miss rate for ReadReq accesses
system.cpu.dcache.ReadReq_miss_rate::total     0.000919                       # miss rate for ReadReq accesses
system.cpu.dcache.ReadReq_avg_miss_latency::.cpu.data 28356.089776                       # average ReadReq miss latency
system.cpu.dcache.ReadReq_avg_miss_latency::total 28356.089776                       # average ReadReq miss latency
system.cpu.dcache.ReadReq_mshr_hits::.cpu.data         3226                       # number of ReadReq MSHR hits
system.cpu.dcache.ReadReq_mshr_hits::total         3226                       # number of ReadReq MSHR hits
system.cpu.dcache.ReadReq_mshr_misses::.cpu.data        16512                       # number of ReadReq MSHR misses
system.cpu.dcache.ReadReq_mshr_misses::total        16512                       # number of ReadReq MSHR misses
system.cpu.dcache.ReadReq_mshr_miss_latency::.cpu.data    489711000                       # number of ReadReq MSHR miss cycles
system.cpu.dcache.ReadReq_mshr_miss_latency::total    489711000                       # number of ReadReq MSHR miss cycles
system.cpu.dcache.ReadReq_mshr_miss_rate::.cpu.data     0.000769                       # mshr miss rate for ReadReq accesses
system.cpu.dcache.ReadReq_mshr_miss_rate::total     0.000769                       # mshr miss rate for ReadReq accesses
system.cpu.dcache.ReadReq_avg_mshr_miss_latency::.cpu.data 29657.885174                       # average ReadReq mshr miss latency
system.cpu.dcache.ReadReq_avg_mshr_miss_latency::total 29657.885174                       # average ReadReq mshr miss latency
system.cpu.dcache.WriteReq_hits::.cpu.data     14199184                       # number of WriteReq hits
system.cpu.dcache.WriteReq_hits::total       14199184                       # number of WriteReq hits
system.cpu.dcache.WriteReq_misses::.cpu.data        55567                       # number of WriteReq misses
system.cpu.dcache.WriteReq_misses::total        55567                       # number of WriteReq misses
system.cpu.dcache.WriteReq_miss_latency::.cpu.data   4362200000                       # number of WriteReq miss cycles
system.cpu.dcache.WriteReq_miss_latency::total   4362200000                       # number of WriteReq miss cycles
system.cpu.dcache.WriteReq_accesses::.cpu.data     14254751                       # number of WriteReq accesses(hits+misses)
system.cpu.dcache.WriteReq_accesses::total     14254751                       # number of WriteReq accesses(hits+misses)
system.cpu.dcache.WriteReq_miss_rate::.cpu.data     0.003898                       # miss rate for WriteReq accesses
system.cpu.dcache.WriteReq_miss_rate::total     0.003898                       # miss rate for WriteReq accesses
system.cpu.dcache.WriteReq_avg_miss_latency::.cpu.data 78503.428294                       # average WriteReq miss latency
system.cpu.dcache.WriteReq_avg_miss_latency::total 78503.428294                       # average WriteReq miss latency
system.cpu.dcache.WriteReq_mshr_hits::.cpu.data        16632                       # number of WriteReq MSHR hits
system.cpu.dcache.WriteReq_mshr_hits::total        16632                       # number of WriteReq MSHR hits
system.cpu.dcache.WriteReq_mshr_misses::.cpu.data        38935                       # number of WriteReq MSHR misses
system.cpu.dcache.WriteReq_mshr_misses::total        38935                       # number of WriteReq MSHR misses
system.cpu.dcache.WriteReq_mshr_miss_latency::.cpu.data   3234208000                       # number of WriteReq MSHR miss cycles
system.cpu.dcache.WriteReq_mshr_miss_latency::total   3234208000                       # number of WriteReq MSHR miss cycles
system.cpu.dcache.WriteReq_mshr_miss_rate::.cpu.data     0.002731                       # mshr miss rate for WriteReq accesses
system.cpu.dcache.WriteReq_mshr_miss_rate::total     0.002731                       # mshr miss rate for WriteReq accesses
system.cpu.dcache.WriteReq_avg_mshr_miss_latency::.cpu.data 83066.855015                       # average WriteReq mshr miss latency
system.cpu.dcache.WriteReq_avg_mshr_miss_latency::total 83066.855015                       # average WriteReq mshr miss latency
system.cpu.dcache.SoftPFReq_hits::.cpu.data         3326                       # number of SoftPFReq hits
system.cpu.dcache.SoftPFReq_hits::total          3326                       # number of SoftPFReq hits
system.cpu.dcache.SoftPFReq_misses::.cpu.data           35                       # number of SoftPFReq misses
system.cpu.dcache.SoftPFReq_misses::total           35                       # number of SoftPFReq misses
system.cpu.dcache.SoftPFReq_accesses::.cpu.data         3361                       # number of SoftPFReq accesses(hits+misses)
system.cpu.dcache.SoftPFReq_accesses::total         3361                       # number of SoftPFReq accesses(hits+misses)
system.cpu.dcache.SoftPFReq_miss_rate::.cpu.data     0.010414                       # miss rate for SoftPFReq accesses
system.cpu.dcache.SoftPFReq_miss_rate::total     0.010414                       # miss rate for SoftPFReq accesses
system.cpu.dcache.SoftPFReq_mshr_misses::.cpu.data           29                       # number of SoftPFReq MSHR misses
system.cpu.dcache.SoftPFReq_mshr_misses::total           29                       # number of SoftPFReq MSHR misses
system.cpu.dcache.SoftPFReq_mshr_miss_latency::.cpu.data      1363000                       # number of SoftPFReq MSHR miss cycles
system.cpu.dcache.SoftPFReq_mshr_miss_latency::total      1363000                       # number of SoftPFReq MSHR miss cycles
system.cpu.dcache.SoftPFReq_mshr_miss_rate::.cpu.data     0.008628                       # mshr miss rate for SoftPFReq accesses
system.cpu.dcache.SoftPFReq_mshr_miss_rate::total     0.008628                       # mshr miss rate for SoftPFReq accesses
system.cpu.dcache.SoftPFReq_avg_mshr_miss_latency::.cpu.data        47000                       # average SoftPFReq mshr miss latency
system.cpu.dcache.SoftPFReq_avg_mshr_miss_latency::total        47000                       # average SoftPFReq mshr miss latency
system.cpu.dcache.LoadLockedReq_hits::.cpu.data        89082                       # number of LoadLockedReq hits
system.cpu.dcache.LoadLockedReq_hits::total        89082                       # number of LoadLockedReq hits
system.cpu.dcache.LoadLockedReq_accesses::.cpu.data        89082                       # number of LoadLockedReq accesses(hits+misses)
system.cpu.dcache.LoadLockedReq_accesses::total        89082                       # number of LoadLockedReq accesses(hits+misses)
system.cpu.dcache.StoreCondReq_hits::.cpu.data        89082                       # number of StoreCondReq hits
system.cpu.dcache.StoreCondReq_hits::total        89082                       # number of StoreCondReq hits
system.cpu.dcache.StoreCondReq_accesses::.cpu.data        89082                       # number of StoreCondReq accesses(hits+misses)
system.cpu.dcache.StoreCondReq_accesses::total        89082                       # number of StoreCondReq accesses(hits+misses)
system.cpu.dcache.tags.pwrStateResidencyTicks::UNDEFINED  65181467500                       # Cumulative time (in ticks) in various power states
system.cpu.dcache.tags.tagsinuse          1020.463301                       # Cycle average of tags in use
system.cpu.dcache.tags.total_refs            35893636                       # Total number of references to valid blocks.
system.cpu.dcache.tags.sampled_refs             55476                       # Sample count of references to valid blocks.
system.cpu.dcache.tags.avg_refs            647.011969                       # Average number of references to valid blocks.
system.cpu.dcache.tags.warmup_cycle            195500                       # Cycle when the warmup percentage was hit.
system.cpu.dcache.tags.occ_blocks::.cpu.data  1020.463301                       # Average occupied blocks per requestor
system.cpu.dcache.tags.occ_percent::.cpu.data     0.996546                       # Average percentage of cache occupancy
system.cpu.dcache.tags.occ_percent::total     0.996546                       # Average percentage of cache occupancy
system.cpu.dcache.tags.occ_task_id_blocks::1024         1024                       # Occupied blocks per task id
system.cpu.dcache.tags.age_task_id_blocks_1024::0            4                       # Occupied blocks per task id
system.cpu.dcache.tags.age_task_id_blocks_1024::1           51                       # Occupied blocks per task id
system.cpu.dcache.tags.age_task_id_blocks_1024::2          449                       # Occupied blocks per task id
system.cpu.dcache.tags.age_task_id_blocks_1024::3          482                       # Occupied blocks per task id
system.cpu.dcache.tags.age_task_id_blocks_1024::4           38                       # Occupied blocks per task id
system.cpu.dcache.tags.occ_task_id_percent::1024            1                       # Percentage of cache occupancy per task id
system.cpu.dcache.tags.tag_accesses          71882476                       # Number of tag accesses
system.cpu.dcache.tags.data_accesses         71882476                       # Number of data accesses
system.cpu.itb.walker.pwrStateResidencyTicks::UNDEFINED  65181467500                       # Cumulative time (in ticks) in various power states
system.cpu.itb.stage2_mmu.stage2_tlb.walker.pwrStateResidencyTicks::UNDEFINED  65181467500                       # Cumulative time (in ticks) in various power states

---------- End Simulation Statistics   ----------
