
---------- Begin Simulation Statistics ----------
final_tick                               513651095500                       # Number of ticks from beginning of simulation (restored from checkpoints and never reset)
host_inst_rate                                 263534                       # Simulator instruction rate (inst/s)
host_mem_usage                                 687936                       # Number of bytes of host memory used
host_op_rate                                   485363                       # Simulator op (including micro ops) rate (op/s)
host_seconds                                   379.46                       # Real time elapsed on the host
host_tick_rate                             1353644921                       # Simulator tick rate (ticks/s)
sim_freq                                 1000000000000                       # Frequency of simulated ticks
sim_insts                                   100000000                       # Number of instructions simulated
sim_ops                                     184174857                       # Number of ops (including micro ops) simulated
sim_seconds                                  0.513651                       # Number of seconds simulated
sim_ticks                                513651095500                       # Number of ticks simulated
system.cpu.branchPred.BTBCorrect                    0                       # Number of correct BTB predictions (this stat may not work properly.
system.cpu.branchPred.BTBHitPct             99.957172                       # BTB Hit Percentage
system.cpu.branchPred.BTBHits                10560991                       # Number of BTB hits
system.cpu.branchPred.BTBLookups             10565516                       # Number of BTB lookups
system.cpu.branchPred.RASInCorrect                  5                       # Number of incorrect RAS predictions.
system.cpu.branchPred.condIncorrect              1455                       # Number of conditional branches incorrect
system.cpu.branchPred.condPredicted          10562031                       # Number of conditional branches predicted
system.cpu.branchPred.indirectHits                 27                       # Number of indirect target hits.
system.cpu.branchPred.indirectLookups             194                       # Number of indirect predictor lookups.
system.cpu.branchPred.indirectMisses              167                       # Number of indirect misses.
system.cpu.branchPred.lookups                10570203                       # Number of BP lookups
system.cpu.branchPred.usedRAS                    2716                       # Number of times the RAS was used to get a target.
system.cpu.branchPredindirectMispredicted           99                       # Number of mispredicted indirect branches.
system.cpu.committedInsts                   100000000                       # Number of instructions committed
system.cpu.committedOps                     184174857                       # Number of ops (including micro ops) committed
system.cpu.cpi                              10.273022                       # CPI: cycles per instruction
system.cpu.discardedOps                          4266                       # Number of ops (including micro ops) which were discarded before commit
system.cpu.dtb.accesses                             0                       # DTB accesses
system.cpu.dtb.align_faults                         0                       # Number of TLB faults due to alignment restrictions
system.cpu.dtb.domain_faults                        0                       # Number of TLB faults due to domain restrictions
system.cpu.dtb.flush_entries                        0                       # Number of entries that have been flushed from TLB
system.cpu.dtb.flush_tlb                            0                       # Number of times complete TLB was flushed
system.cpu.dtb.flush_tlb_asid                       0                       # Number of times TLB was flushed by ASID
system.cpu.dtb.flush_tlb_mva                        0                       # Number of times TLB was flushed by MVA
system.cpu.dtb.flush_tlb_mva_asid                   0                       # Number of times TLB was flushed by MVA & ASID
system.cpu.dtb.hits                                 0                       # DTB hits
system.cpu.dtb.inst_accesses                        0                       # ITB inst accesses
system.cpu.dtb.inst_hits                            0                       # ITB inst hits
system.cpu.dtb.inst_misses                          0                       # ITB inst misses
system.cpu.dtb.misses                               0                       # DTB misses
system.cpu.dtb.perms_faults                         0                       # Number of TLB faults due to permissions restrictions
system.cpu.dtb.prefetch_faults                      0                       # Number of TLB faults due to prefetch
system.cpu.dtb.read_accesses                        0                       # DTB read accesses
system.cpu.dtb.read_hits                            0                       # DTB read hits
system.cpu.dtb.read_misses                          0                       # DTB read misses
system.cpu.dtb.stage2_mmu.stage2_tlb.accesses            0                       # DTB accesses
system.cpu.dtb.stage2_mmu.stage2_tlb.align_faults            0                       # Number of TLB faults due to alignment restrictions
system.cpu.dtb.stage2_mmu.stage2_tlb.domain_faults            0                       # Number of TLB faults due to domain restrictions
system.cpu.dtb.stage2_mmu.stage2_tlb.flush_entries            0                       # Number of entries that have been flushed from TLB
system.cpu.dtb.stage2_mmu.stage2_tlb.flush_tlb            0                       # Number of times complete TLB was flushed
system.cpu.dtb.stage2_mmu.stage2_tlb.flush_tlb_asid            0                       # Number of times TLB was flushed by ASID
system.cpu.dtb.stage2_mmu.stage2_tlb.flush_tlb_mva            0                       # Number of times TLB was flushed by MVA
system.cpu.dtb.stage2_mmu.stage2_tlb.flush_tlb_mva_asid            0                       # Number of times TLB was flushed by MVA & ASID
system.cpu.dtb.stage2_mmu.stage2_tlb.hits            0                       # DTB hits
system.cpu.dtb.stage2_mmu.stage2_tlb.inst_accesses            0                       # ITB inst accesses
system.cpu.dtb.stage2_mmu.stage2_tlb.inst_hits            0                       # ITB inst hits
system.cpu.dtb.stage2_mmu.stage2_tlb.inst_misses            0                       # ITB inst misses
system.cpu.dtb.stage2_mmu.stage2_tlb.misses            0                       # DTB misses
system.cpu.dtb.stage2_mmu.stage2_tlb.perms_faults            0                       # Number of TLB faults due to permissions restrictions
system.cpu.dtb.stage2_mmu.stage2_tlb.prefetch_faults            0                       # Number of TLB faults due to prefetch
system.cpu.dtb.stage2_mmu.stage2_tlb.read_accesses            0                       # DTB read accesses
system.cpu.dtb.stage2_mmu.stage2_tlb.read_hits            0                       # DTB read hits
system.cpu.dtb.stage2_mmu.stage2_tlb.read_misses            0                       # DTB read misses
system.cpu.dtb.stage2_mmu.stage2_tlb.walker.walkRequestOrigin_Requested::Data            0                       # Table walker requests started/completed, data/inst
system.cpu.dtb.stage2_mmu.stage2_tlb.walker.walkRequestOrigin_Requested::Inst            0                       # Table walker requests started/completed, data/inst
system.cpu.dtb.stage2_mmu.stage2_tlb.walker.walkRequestOrigin_Requested::total            0                       # Table walker requests started/completed, data/inst
system.cpu.dtb.stage2_mmu.stage2_tlb.walker.walkRequestOrigin_Completed::Data            0                       # Table walker requests started/completed, data/inst
system.cpu.dtb.stage2_mmu.stage2_tlb.walker.walkRequestOrigin_Completed::Inst            0                       # Table walker requests started/completed, data/inst
system.cpu.dtb.stage2_mmu.stage2_tlb.walker.walkRequestOrigin_Completed::total            0                       # Table walker requests started/completed, data/inst
system.cpu.dtb.stage2_mmu.stage2_tlb.walker.walkRequestOrigin::total            0                       # Table walker requests started/completed, data/inst
system.cpu.dtb.stage2_mmu.stage2_tlb.walker.walks            0                       # Table walker walks requested
system.cpu.dtb.stage2_mmu.stage2_tlb.write_accesses            0                       # DTB write accesses
system.cpu.dtb.stage2_mmu.stage2_tlb.write_hits            0                       # DTB write hits
system.cpu.dtb.stage2_mmu.stage2_tlb.write_misses            0                       # DTB write misses
system.cpu.dtb.walker.walkRequestOrigin_Requested::Data            0                       # Table walker requests started/completed, data/inst
system.cpu.dtb.walker.walkRequestOrigin_Requested::Inst            0                       # Table walker requests started/completed, data/inst
system.cpu.dtb.walker.walkRequestOrigin_Requested::total            0                       # Table walker requests started/completed, data/inst
system.cpu.dtb.walker.walkRequestOrigin_Completed::Data            0                       # Table walker requests started/completed, data/inst
system.cpu.dtb.walker.walkRequestOrigin_Completed::Inst            0                       # Table walker requests started/completed, data/inst
system.cpu.dtb.walker.walkRequestOrigin_Completed::total            0                       # Table walker requests started/completed, data/inst
system.cpu.dtb.walker.walkRequestOrigin::total            0                       # Table walker requests started/completed, data/inst
system.cpu.dtb.walker.walks                         0                       # Table walker walks requested
system.cpu.dtb.write_accesses                       0                       # DTB write accesses
system.cpu.dtb.write_hits                           0                       # DTB write hits
system.cpu.dtb.write_misses                         0                       # DTB write misses
system.cpu.fetch2.amo_instructions                  0                       # Number of memory atomic instructions successfully decoded
system.cpu.fetch2.fp_instructions                   0                       # Number of floating point instructions successfully decoded
system.cpu.fetch2.int_instructions           44894800                       # Number of integer instructions successfully decoded
system.cpu.fetch2.load_instructions           2086307                       # Number of memory load instructions successfully decoded
system.cpu.fetch2.store_instructions           169076                       # Number of memory store instructions successfully decoded
system.cpu.fetch2.vec_instructions                  0                       # Number of SIMD instructions successfully decoded
system.cpu.idleCycles                       806096638                       # Total number of cycles that the object has spent stopped
system.cpu.ipc                               0.097342                       # IPC: instructions per cycle
system.cpu.itb.accesses                             0                       # DTB accesses
system.cpu.itb.align_faults                         0                       # Number of TLB faults due to alignment restrictions
system.cpu.itb.domain_faults                        0                       # Number of TLB faults due to domain restrictions
system.cpu.itb.flush_entries                        0                       # Number of entries that have been flushed from TLB
system.cpu.itb.flush_tlb                            0                       # Number of times complete TLB was flushed
system.cpu.itb.flush_tlb_asid                       0                       # Number of times TLB was flushed by ASID
system.cpu.itb.flush_tlb_mva                        0                       # Number of times TLB was flushed by MVA
system.cpu.itb.flush_tlb_mva_asid                   0                       # Number of times TLB was flushed by MVA & ASID
system.cpu.itb.hits                                 0                       # DTB hits
system.cpu.itb.inst_accesses                        0                       # ITB inst accesses
system.cpu.itb.inst_hits                            0                       # ITB inst hits
system.cpu.itb.inst_misses                          0                       # ITB inst misses
system.cpu.itb.misses                               0                       # DTB misses
system.cpu.itb.perms_faults                         0                       # Number of TLB faults due to permissions restrictions
system.cpu.itb.prefetch_faults                      0                       # Number of TLB faults due to prefetch
system.cpu.itb.read_accesses                        0                       # DTB read accesses
system.cpu.itb.read_hits                            0                       # DTB read hits
system.cpu.itb.read_misses                          0                       # DTB read misses
system.cpu.itb.stage2_mmu.stage2_tlb.accesses            0                       # DTB accesses
system.cpu.itb.stage2_mmu.stage2_tlb.align_faults            0                       # Number of TLB faults due to alignment restrictions
system.cpu.itb.stage2_mmu.stage2_tlb.domain_faults            0                       # Number of TLB faults due to domain restrictions
system.cpu.itb.stage2_mmu.stage2_tlb.flush_entries            0                       # Number of entries that have been flushed from TLB
system.cpu.itb.stage2_mmu.stage2_tlb.flush_tlb            0                       # Number of times complete TLB was flushed
system.cpu.itb.stage2_mmu.stage2_tlb.flush_tlb_asid            0                       # Number of times TLB was flushed by ASID
system.cpu.itb.stage2_mmu.stage2_tlb.flush_tlb_mva            0                       # Number of times TLB was flushed by MVA
system.cpu.itb.stage2_mmu.stage2_tlb.flush_tlb_mva_asid            0                       # Number of times TLB was flushed by MVA & ASID
system.cpu.itb.stage2_mmu.stage2_tlb.hits            0                       # DTB hits
system.cpu.itb.stage2_mmu.stage2_tlb.inst_accesses            0                       # ITB inst accesses
system.cpu.itb.stage2_mmu.stage2_tlb.inst_hits            0                       # ITB inst hits
system.cpu.itb.stage2_mmu.stage2_tlb.inst_misses            0                       # ITB inst misses
system.cpu.itb.stage2_mmu.stage2_tlb.misses            0                       # DTB misses
system.cpu.itb.stage2_mmu.stage2_tlb.perms_faults            0                       # Number of TLB faults due to permissions restrictions
system.cpu.itb.stage2_mmu.stage2_tlb.prefetch_faults            0                       # Number of TLB faults due to prefetch
system.cpu.itb.stage2_mmu.stage2_tlb.read_accesses            0                       # DTB read accesses
system.cpu.itb.stage2_mmu.stage2_tlb.read_hits            0                       # DTB read hits
system.cpu.itb.stage2_mmu.stage2_tlb.read_misses            0                       # DTB read misses
system.cpu.itb.stage2_mmu.stage2_tlb.walker.walkRequestOrigin_Requested::Data            0                       # Table walker requests started/completed, data/inst
system.cpu.itb.stage2_mmu.stage2_tlb.walker.walkRequestOrigin_Requested::Inst            0                       # Table walker requests started/completed, data/inst
system.cpu.itb.stage2_mmu.stage2_tlb.walker.walkRequestOrigin_Requested::total            0                       # Table walker requests started/completed, data/inst
system.cpu.itb.stage2_mmu.stage2_tlb.walker.walkRequestOrigin_Completed::Data            0                       # Table walker requests started/completed, data/inst
system.cpu.itb.stage2_mmu.stage2_tlb.walker.walkRequestOrigin_Completed::Inst            0                       # Table walker requests started/completed, data/inst
system.cpu.itb.stage2_mmu.stage2_tlb.walker.walkRequestOrigin_Completed::total            0                       # Table walker requests started/completed, data/inst
system.cpu.itb.stage2_mmu.stage2_tlb.walker.walkRequestOrigin::total            0                       # Table walker requests started/completed, data/inst
system.cpu.itb.stage2_mmu.stage2_tlb.walker.walks            0                       # Table walker walks requested
system.cpu.itb.stage2_mmu.stage2_tlb.write_accesses            0                       # DTB write accesses
system.cpu.itb.stage2_mmu.stage2_tlb.write_hits            0                       # DTB write hits
system.cpu.itb.stage2_mmu.stage2_tlb.write_misses            0                       # DTB write misses
system.cpu.itb.walker.walkRequestOrigin_Requested::Data            0                       # Table walker requests started/completed, data/inst
system.cpu.itb.walker.walkRequestOrigin_Requested::Inst            0                       # Table walker requests started/completed, data/inst
system.cpu.itb.walker.walkRequestOrigin_Requested::total            0                       # Table walker requests started/completed, data/inst
system.cpu.itb.walker.walkRequestOrigin_Completed::Data            0                       # Table walker requests started/completed, data/inst
system.cpu.itb.walker.walkRequestOrigin_Completed::Inst            0                       # Table walker requests started/completed, data/inst
system.cpu.itb.walker.walkRequestOrigin_Completed::total            0                       # Table walker requests started/completed, data/inst
system.cpu.itb.walker.walkRequestOrigin::total            0                       # Table walker requests started/completed, data/inst
system.cpu.itb.walker.walks                         0                       # Table walker walks requested
system.cpu.itb.write_accesses                       0                       # DTB write accesses
system.cpu.itb.write_hits                           0                       # DTB write hits
system.cpu.itb.write_misses                         0                       # DTB write misses
system.cpu.numCycles                       1027302191                       # number of cpu cycles simulated
system.cpu.numFetchSuspends                         0                       # Number of times Execute suspended instruction fetching
system.cpu.numWorkItemsCompleted                    0                       # number of work items this cpu completed
system.cpu.numWorkItemsStarted                      0                       # number of work items this cpu started
system.cpu.op_class_0::No_OpClass                   0      0.00%      0.00% # Class of committed instruction
system.cpu.op_class_0::IntAlu                97640483     53.02%     53.02% # Class of committed instruction
system.cpu.op_class_0::IntMult                 114699      0.06%     53.08% # Class of committed instruction
system.cpu.op_class_0::IntDiv                       0      0.00%     53.08% # Class of committed instruction
system.cpu.op_class_0::FloatAdd                     0      0.00%     53.08% # Class of committed instruction
system.cpu.op_class_0::FloatCmp                     0      0.00%     53.08% # Class of committed instruction
system.cpu.op_class_0::FloatCvt                     0      0.00%     53.08% # Class of committed instruction
system.cpu.op_class_0::FloatMult                    0      0.00%     53.08% # Class of committed instruction
system.cpu.op_class_0::FloatMultAcc                 0      0.00%     53.08% # Class of committed instruction
system.cpu.op_class_0::FloatDiv                     0      0.00%     53.08% # Class of committed instruction
system.cpu.op_class_0::FloatMisc                    0      0.00%     53.08% # Class of committed instruction
system.cpu.op_class_0::FloatSqrt                    0      0.00%     53.08% # Class of committed instruction
system.cpu.op_class_0::SimdAdd                      8      0.00%     53.08% # Class of committed instruction
system.cpu.op_class_0::SimdAddAcc                   0      0.00%     53.08% # Class of committed instruction
system.cpu.op_class_0::SimdAlu                      8      0.00%     53.08% # Class of committed instruction
system.cpu.op_class_0::SimdCmp                      6      0.00%     53.08% # Class of committed instruction
system.cpu.op_class_0::SimdCvt                      0      0.00%     53.08% # Class of committed instruction
system.cpu.op_class_0::SimdMisc                     1      0.00%     53.08% # Class of committed instruction
system.cpu.op_class_0::SimdMult                     0      0.00%     53.08% # Class of committed instruction
system.cpu.op_class_0::SimdMultAcc                  0      0.00%     53.08% # Class of committed instruction
system.cpu.op_class_0::SimdShift                    0      0.00%     53.08% # Class of committed instruction
system.cpu.op_class_0::SimdShiftAcc                 0      0.00%     53.08% # Class of committed instruction
system.cpu.op_class_0::SimdDiv                      0      0.00%     53.08% # Class of committed instruction
system.cpu.op_class_0::SimdSqrt                     0      0.00%     53.08% # Class of committed instruction
system.cpu.op_class_0::SimdFloatAdd                 0      0.00%     53.08% # Class of committed instruction
system.cpu.op_class_0::SimdFloatAlu                 0      0.00%     53.08% # Class of committed instruction
system.cpu.op_class_0::SimdFloatCmp                 0      0.00%     53.08% # Class of committed instruction
system.cpu.op_class_0::SimdFloatCvt                 0      0.00%     53.08% # Class of committed instruction
system.cpu.op_class_0::SimdFloatDiv                 0      0.00%     53.08% # Class of committed instruction
system.cpu.op_class_0::SimdFloatMisc               23      0.00%     53.08% # Class of committed instruction
system.cpu.op_class_0::SimdFloatMult                0      0.00%     53.08% # Class of committed instruction
system.cpu.op_class_0::SimdFloatMultAcc             0      0.00%     53.08% # Class of committed instruction
system.cpu.op_class_0::SimdFloatSqrt                0      0.00%     53.08% # Class of committed instruction
system.cpu.op_class_0::SimdReduceAdd                0      0.00%     53.08% # Class of committed instruction
system.cpu.op_class_0::SimdReduceAlu                0      0.00%     53.08% # Class of committed instruction
system.cpu.op_class_0::SimdReduceCmp                0      0.00%     53.08% # Class of committed instruction
system.cpu.op_class_0::SimdFloatReduceAdd            0      0.00%     53.08% # Class of committed instruction
system.cpu.op_class_0::SimdFloatReduceCmp            0      0.00%     53.08% # Class of committed instruction
system.cpu.op_class_0::SimdAes                      0      0.00%     53.08% # Class of committed instruction
system.cpu.op_class_0::SimdAesMix                   0      0.00%     53.08% # Class of committed instruction
system.cpu.op_class_0::SimdSha1Hash                 0      0.00%     53.08% # Class of committed instruction
system.cpu.op_class_0::SimdSha1Hash2                0      0.00%     53.08% # Class of committed instruction
system.cpu.op_class_0::SimdSha256Hash               0      0.00%     53.08% # Class of committed instruction
system.cpu.op_class_0::SimdSha256Hash2              0      0.00%     53.08% # Class of committed instruction
system.cpu.op_class_0::SimdShaSigma2                0      0.00%     53.08% # Class of committed instruction
system.cpu.op_class_0::SimdShaSigma3                0      0.00%     53.08% # Class of committed instruction
system.cpu.op_class_0::SimdPredAlu                  0      0.00%     53.08% # Class of committed instruction
system.cpu.op_class_0::MemRead                2082677      1.13%     54.21% # Class of committed instruction
system.cpu.op_class_0::MemWrite              84336952     45.79%    100.00% # Class of committed instruction
system.cpu.op_class_0::FloatMemRead                 0      0.00%    100.00% # Class of committed instruction
system.cpu.op_class_0::FloatMemWrite                0      0.00%    100.00% # Class of committed instruction
system.cpu.op_class_0::IprAccess                    0      0.00%    100.00% # Class of committed instruction
system.cpu.op_class_0::InstPrefetch                 0      0.00%    100.00% # Class of committed instruction
system.cpu.op_class_0::total                184174857                       # Class of committed instruction
system.cpu.tickCycles                       221205553                       # Number of cycles that the object actually ticked
system.cpu.workload.numSyscalls                    18                       # Number of system calls
system.membus.snoop_filter.hit_multi_requests            0                       # Number of requests hitting in the snoop filter with multiple (>1) holders of the requested data.
system.membus.snoop_filter.hit_multi_snoops            0                       # Number of snoops hitting in the snoop filter with multiple (>1) holders of the requested data.
system.membus.snoop_filter.hit_single_requests      5247262                       # Number of requests hitting in the snoop filter with a single holder of the requested data.
system.membus.snoop_filter.hit_single_snoops            0                       # Number of snoops hitting in the snoop filter with a single holder of the requested data.
system.membus.snoop_filter.tot_requests      10511155                       # Total number of requests made to the snoop filter.
system.membus.snoop_filter.tot_snoops               0                       # Total number of snoops made to the snoop filter.
system.tol2bus.snoop_filter.hit_multi_requests           59                       # Number of requests hitting in the snoop filter with multiple (>1) holders of the requested data.
system.tol2bus.snoop_filter.hit_multi_snoops            0                       # Number of snoops hitting in the snoop filter with multiple (>1) holders of the requested data.
system.tol2bus.snoop_filter.hit_single_requests      5262842                       # Number of requests hitting in the snoop filter with a single holder of the requested data.
system.tol2bus.snoop_filter.hit_single_snoops          411                       # Number of snoops hitting in the snoop filter with a single holder of the requested data.
system.tol2bus.snoop_filter.tot_requests     10526965                       # Total number of requests made to the snoop filter.
system.tol2bus.snoop_filter.tot_snoops            411                       # Total number of snoops made to the snoop filter.
system.membus.pwrStateResidencyTicks::UNDEFINED 513651095500                       # Cumulative time (in ticks) in various power states
system.membus.trans_dist::ReadResp                877                       # Transaction distribution
system.membus.trans_dist::WritebackDirty      5246669                       # Transaction distribution
system.membus.trans_dist::CleanEvict              584                       # Transaction distribution
system.membus.trans_dist::ReadExReq           5263025                       # Transaction distribution
system.membus.trans_dist::ReadExResp          5263025                       # Transaction distribution
system.membus.trans_dist::ReadSharedReq           877                       # Transaction distribution
system.membus.pkt_count_system.l2.mem_side::system.mem_ctrls.port     15775057                       # Packet count per connected master and slave (bytes)
system.membus.pkt_count::total               15775057                       # Packet count per connected master and slave (bytes)
system.membus.pkt_size_system.l2.mem_side::system.mem_ctrls.port    672676544                       # Cumulative packet size per connected master and slave (bytes)
system.membus.pkt_size::total               672676544                       # Cumulative packet size per connected master and slave (bytes)
system.membus.snoops                                0                       # Total snoops (count)
system.membus.snoopTraffic                          0                       # Total snoop traffic (bytes)
system.membus.snoop_fanout::samples           5263902                       # Request fanout histogram
system.membus.snoop_fanout::mean                    0                       # Request fanout histogram
system.membus.snoop_fanout::stdev                   0                       # Request fanout histogram
system.membus.snoop_fanout::underflows              0      0.00%      0.00% # Request fanout histogram
system.membus.snoop_fanout::0                 5263902    100.00%    100.00% # Request fanout histogram
system.membus.snoop_fanout::1                       0      0.00%    100.00% # Request fanout histogram
system.membus.snoop_fanout::overflows               0      0.00%    100.00% # Request fanout histogram
system.membus.snoop_fanout::min_value               0                       # Request fanout histogram
system.membus.snoop_fanout::max_value               0                       # Request fanout histogram
system.membus.snoop_fanout::total             5263902                       # Request fanout histogram
system.membus.respLayer1.occupancy        27681041250                       # Layer occupancy (ticks)
system.membus.respLayer1.utilization              5.4                       # Layer utilization (%)
system.membus.reqLayer0.occupancy         31498433000                       # Layer occupancy (ticks)
system.membus.reqLayer0.utilization               6.1                       # Layer utilization (%)
system.tol2bus.pwrStateResidencyTicks::UNDEFINED 513651095500                       # Cumulative time (in ticks) in various power states
system.tol2bus.trans_dist::ReadResp              1071                       # Transaction distribution
system.tol2bus.trans_dist::WritebackDirty     10508735                       # Transaction distribution
system.tol2bus.trans_dist::WritebackClean          465                       # Transaction distribution
system.tol2bus.trans_dist::CleanEvict            1306                       # Transaction distribution
system.tol2bus.trans_dist::ReadExReq          5263052                       # Transaction distribution
system.tol2bus.trans_dist::ReadExResp         5263051                       # Transaction distribution
system.tol2bus.trans_dist::ReadCleanReq           721                       # Transaction distribution
system.tol2bus.trans_dist::ReadSharedReq          350                       # Transaction distribution
system.tol2bus.pkt_count_system.cpu.icache.mem_side::system.l2.cpu_side         1907                       # Packet count per connected master and slave (bytes)
system.tol2bus.pkt_count_system.cpu.dcache.mem_side::system.l2.cpu_side     15789180                       # Packet count per connected master and slave (bytes)
system.tol2bus.pkt_count::total              15791087                       # Packet count per connected master and slave (bytes)
system.tol2bus.pkt_size_system.cpu.icache.mem_side::system.l2.cpu_side        75904                       # Cumulative packet size per connected master and slave (bytes)
system.tol2bus.pkt_size_system.cpu.dcache.mem_side::system.l2.cpu_side    673629888                       # Cumulative packet size per connected master and slave (bytes)
system.tol2bus.pkt_size::total              673705792                       # Cumulative packet size per connected master and slave (bytes)
system.tol2bus.snoops                         5247664                       # Total snoops (count)
system.tol2bus.snoopTraffic                 335786816                       # Total snoop traffic (bytes)
system.tol2bus.snoop_fanout::samples         10511787                       # Request fanout histogram
system.tol2bus.snoop_fanout::mean            0.000045                       # Request fanout histogram
system.tol2bus.snoop_fanout::stdev           0.006687                       # Request fanout histogram
system.tol2bus.snoop_fanout::underflows             0      0.00%      0.00% # Request fanout histogram
system.tol2bus.snoop_fanout::0               10511317    100.00%    100.00% # Request fanout histogram
system.tol2bus.snoop_fanout::1                    470      0.00%    100.00% # Request fanout histogram
system.tol2bus.snoop_fanout::2                      0      0.00%    100.00% # Request fanout histogram
system.tol2bus.snoop_fanout::overflows              0      0.00%    100.00% # Request fanout histogram
system.tol2bus.snoop_fanout::min_value              0                       # Request fanout histogram
system.tol2bus.snoop_fanout::max_value              1                       # Request fanout histogram
system.tol2bus.snoop_fanout::total           10511787                       # Request fanout histogram
system.tol2bus.reqLayer0.occupancy        10526013500                       # Layer occupancy (ticks)
system.tol2bus.reqLayer0.utilization              2.0                       # Layer utilization (%)
system.tol2bus.respLayer1.occupancy        7895103995                       # Layer occupancy (ticks)
system.tol2bus.respLayer1.utilization             1.5                       # Layer utilization (%)
system.tol2bus.respLayer0.occupancy           1081999                       # Layer occupancy (ticks)
system.tol2bus.respLayer0.utilization             0.0                       # Layer utilization (%)
system.voltage_domain.voltage                       1                       # Voltage in Volts
system.clk_domain.clock                          1000                       # Clock period in ticks
system.l2.pwrStateResidencyTicks::UNDEFINED 513651095500                       # Cumulative time (in ticks) in various power states
system.l2.demand_hits::.cpu.inst                  124                       # number of demand (read+write) hits
system.l2.demand_hits::.cpu.data                   90                       # number of demand (read+write) hits
system.l2.demand_hits::total                      214                       # number of demand (read+write) hits
system.l2.overall_hits::.cpu.inst                 124                       # number of overall hits
system.l2.overall_hits::.cpu.data                  90                       # number of overall hits
system.l2.overall_hits::total                     214                       # number of overall hits
system.l2.demand_misses::.cpu.inst                597                       # number of demand (read+write) misses
system.l2.demand_misses::.cpu.data            5263312                       # number of demand (read+write) misses
system.l2.demand_misses::total                5263909                       # number of demand (read+write) misses
system.l2.overall_misses::.cpu.inst               597                       # number of overall misses
system.l2.overall_misses::.cpu.data           5263312                       # number of overall misses
system.l2.overall_misses::total               5263909                       # number of overall misses
system.l2.demand_miss_latency::.cpu.inst     48384500                       # number of demand (read+write) miss cycles
system.l2.demand_miss_latency::.cpu.data 424052197500                       # number of demand (read+write) miss cycles
system.l2.demand_miss_latency::total     424100582000                       # number of demand (read+write) miss cycles
system.l2.overall_miss_latency::.cpu.inst     48384500                       # number of overall miss cycles
system.l2.overall_miss_latency::.cpu.data 424052197500                       # number of overall miss cycles
system.l2.overall_miss_latency::total    424100582000                       # number of overall miss cycles
system.l2.demand_accesses::.cpu.inst              721                       # number of demand (read+write) accesses
system.l2.demand_accesses::.cpu.data          5263402                       # number of demand (read+write) accesses
system.l2.demand_accesses::total              5264123                       # number of demand (read+write) accesses
system.l2.overall_accesses::.cpu.inst             721                       # number of overall (read+write) accesses
system.l2.overall_accesses::.cpu.data         5263402                       # number of overall (read+write) accesses
system.l2.overall_accesses::total             5264123                       # number of overall (read+write) accesses
system.l2.demand_miss_rate::.cpu.inst        0.828017                       # miss rate for demand accesses
system.l2.demand_miss_rate::.cpu.data        0.999983                       # miss rate for demand accesses
system.l2.demand_miss_rate::total            0.999959                       # miss rate for demand accesses
system.l2.overall_miss_rate::.cpu.inst       0.828017                       # miss rate for overall accesses
system.l2.overall_miss_rate::.cpu.data       0.999983                       # miss rate for overall accesses
system.l2.overall_miss_rate::total           0.999959                       # miss rate for overall accesses
system.l2.demand_avg_miss_latency::.cpu.inst 81046.063652                       # average overall miss latency
system.l2.demand_avg_miss_latency::.cpu.data 80567.558507                       # average overall miss latency
system.l2.demand_avg_miss_latency::total 80567.612776                       # average overall miss latency
system.l2.overall_avg_miss_latency::.cpu.inst 81046.063652                       # average overall miss latency
system.l2.overall_avg_miss_latency::.cpu.data 80567.558507                       # average overall miss latency
system.l2.overall_avg_miss_latency::total 80567.612776                       # average overall miss latency
system.l2.blocked_cycles::no_mshrs                  0                       # number of cycles access was blocked
system.l2.blocked_cycles::no_targets                0                       # number of cycles access was blocked
system.l2.blocked::no_mshrs                         0                       # number of cycles access was blocked
system.l2.blocked::no_targets                       0                       # number of cycles access was blocked
system.l2.avg_blocked_cycles::no_mshrs            nan                       # average number of cycles each access was blocked
system.l2.avg_blocked_cycles::no_targets          nan                       # average number of cycles each access was blocked
system.l2.writebacks::.writebacks             5246669                       # number of writebacks
system.l2.writebacks::total                   5246669                       # number of writebacks
system.l2.demand_mshr_hits::.cpu.inst               1                       # number of demand (read+write) MSHR hits
system.l2.demand_mshr_hits::.cpu.data               5                       # number of demand (read+write) MSHR hits
system.l2.demand_mshr_hits::total                   6                       # number of demand (read+write) MSHR hits
system.l2.overall_mshr_hits::.cpu.inst              1                       # number of overall MSHR hits
system.l2.overall_mshr_hits::.cpu.data              5                       # number of overall MSHR hits
system.l2.overall_mshr_hits::total                  6                       # number of overall MSHR hits
system.l2.demand_mshr_misses::.cpu.inst           596                       # number of demand (read+write) MSHR misses
system.l2.demand_mshr_misses::.cpu.data       5263307                       # number of demand (read+write) MSHR misses
system.l2.demand_mshr_misses::total           5263903                       # number of demand (read+write) MSHR misses
system.l2.overall_mshr_misses::.cpu.inst          596                       # number of overall MSHR misses
system.l2.overall_mshr_misses::.cpu.data      5263307                       # number of overall MSHR misses
system.l2.overall_mshr_misses::total          5263903                       # number of overall MSHR misses
system.l2.demand_mshr_miss_latency::.cpu.inst     42341000                       # number of demand (read+write) MSHR miss cycles
system.l2.demand_mshr_miss_latency::.cpu.data 371418551000                       # number of demand (read+write) MSHR miss cycles
system.l2.demand_mshr_miss_latency::total 371460892000                       # number of demand (read+write) MSHR miss cycles
system.l2.overall_mshr_miss_latency::.cpu.inst     42341000                       # number of overall MSHR miss cycles
system.l2.overall_mshr_miss_latency::.cpu.data 371418551000                       # number of overall MSHR miss cycles
system.l2.overall_mshr_miss_latency::total 371460892000                       # number of overall MSHR miss cycles
system.l2.demand_mshr_miss_rate::.cpu.inst     0.826630                       # mshr miss rate for demand accesses
system.l2.demand_mshr_miss_rate::.cpu.data     0.999982                       # mshr miss rate for demand accesses
system.l2.demand_mshr_miss_rate::total       0.999958                       # mshr miss rate for demand accesses
system.l2.overall_mshr_miss_rate::.cpu.inst     0.826630                       # mshr miss rate for overall accesses
system.l2.overall_mshr_miss_rate::.cpu.data     0.999982                       # mshr miss rate for overall accesses
system.l2.overall_mshr_miss_rate::total      0.999958                       # mshr miss rate for overall accesses
system.l2.demand_avg_mshr_miss_latency::.cpu.inst 71041.946309                       # average overall mshr miss latency
system.l2.demand_avg_mshr_miss_latency::.cpu.data 70567.525512                       # average overall mshr miss latency
system.l2.demand_avg_mshr_miss_latency::total 70567.579228                       # average overall mshr miss latency
system.l2.overall_avg_mshr_miss_latency::.cpu.inst 71041.946309                       # average overall mshr miss latency
system.l2.overall_avg_mshr_miss_latency::.cpu.data 70567.525512                       # average overall mshr miss latency
system.l2.overall_avg_mshr_miss_latency::total 70567.579228                       # average overall mshr miss latency
system.l2.replacements                        5247664                       # number of replacements
system.l2.WritebackDirty_hits::.writebacks      5262066                       # number of WritebackDirty hits
system.l2.WritebackDirty_hits::total          5262066                       # number of WritebackDirty hits
system.l2.WritebackDirty_accesses::.writebacks      5262066                       # number of WritebackDirty accesses(hits+misses)
system.l2.WritebackDirty_accesses::total      5262066                       # number of WritebackDirty accesses(hits+misses)
system.l2.WritebackClean_hits::.writebacks          456                       # number of WritebackClean hits
system.l2.WritebackClean_hits::total              456                       # number of WritebackClean hits
system.l2.WritebackClean_accesses::.writebacks          456                       # number of WritebackClean accesses(hits+misses)
system.l2.WritebackClean_accesses::total          456                       # number of WritebackClean accesses(hits+misses)
system.l2.ReadExReq_hits::.cpu.data                26                       # number of ReadExReq hits
system.l2.ReadExReq_hits::total                    26                       # number of ReadExReq hits
system.l2.ReadExReq_misses::.cpu.data         5263026                       # number of ReadExReq misses
system.l2.ReadExReq_misses::total             5263026                       # number of ReadExReq misses
system.l2.ReadExReq_miss_latency::.cpu.data 424027205000                       # number of ReadExReq miss cycles
system.l2.ReadExReq_miss_latency::total  424027205000                       # number of ReadExReq miss cycles
system.l2.ReadExReq_accesses::.cpu.data       5263052                       # number of ReadExReq accesses(hits+misses)
system.l2.ReadExReq_accesses::total           5263052                       # number of ReadExReq accesses(hits+misses)
system.l2.ReadExReq_miss_rate::.cpu.data     0.999995                       # miss rate for ReadExReq accesses
system.l2.ReadExReq_miss_rate::total         0.999995                       # miss rate for ReadExReq accesses
system.l2.ReadExReq_avg_miss_latency::.cpu.data 80567.187964                       # average ReadExReq miss latency
system.l2.ReadExReq_avg_miss_latency::total 80567.187964                       # average ReadExReq miss latency
system.l2.ReadExReq_mshr_misses::.cpu.data      5263026                       # number of ReadExReq MSHR misses
system.l2.ReadExReq_mshr_misses::total        5263026                       # number of ReadExReq MSHR misses
system.l2.ReadExReq_mshr_miss_latency::.cpu.data 371396955000                       # number of ReadExReq MSHR miss cycles
system.l2.ReadExReq_mshr_miss_latency::total 371396955000                       # number of ReadExReq MSHR miss cycles
system.l2.ReadExReq_mshr_miss_rate::.cpu.data     0.999995                       # mshr miss rate for ReadExReq accesses
system.l2.ReadExReq_mshr_miss_rate::total     0.999995                       # mshr miss rate for ReadExReq accesses
system.l2.ReadExReq_avg_mshr_miss_latency::.cpu.data 70567.189864                       # average ReadExReq mshr miss latency
system.l2.ReadExReq_avg_mshr_miss_latency::total 70567.189864                       # average ReadExReq mshr miss latency
system.l2.ReadCleanReq_hits::.cpu.inst            124                       # number of ReadCleanReq hits
system.l2.ReadCleanReq_hits::total                124                       # number of ReadCleanReq hits
system.l2.ReadCleanReq_misses::.cpu.inst          597                       # number of ReadCleanReq misses
system.l2.ReadCleanReq_misses::total              597                       # number of ReadCleanReq misses
system.l2.ReadCleanReq_miss_latency::.cpu.inst     48384500                       # number of ReadCleanReq miss cycles
system.l2.ReadCleanReq_miss_latency::total     48384500                       # number of ReadCleanReq miss cycles
system.l2.ReadCleanReq_accesses::.cpu.inst          721                       # number of ReadCleanReq accesses(hits+misses)
system.l2.ReadCleanReq_accesses::total            721                       # number of ReadCleanReq accesses(hits+misses)
system.l2.ReadCleanReq_miss_rate::.cpu.inst     0.828017                       # miss rate for ReadCleanReq accesses
system.l2.ReadCleanReq_miss_rate::total      0.828017                       # miss rate for ReadCleanReq accesses
system.l2.ReadCleanReq_avg_miss_latency::.cpu.inst 81046.063652                       # average ReadCleanReq miss latency
system.l2.ReadCleanReq_avg_miss_latency::total 81046.063652                       # average ReadCleanReq miss latency
system.l2.ReadCleanReq_mshr_hits::.cpu.inst            1                       # number of ReadCleanReq MSHR hits
system.l2.ReadCleanReq_mshr_hits::total             1                       # number of ReadCleanReq MSHR hits
system.l2.ReadCleanReq_mshr_misses::.cpu.inst          596                       # number of ReadCleanReq MSHR misses
system.l2.ReadCleanReq_mshr_misses::total          596                       # number of ReadCleanReq MSHR misses
system.l2.ReadCleanReq_mshr_miss_latency::.cpu.inst     42341000                       # number of ReadCleanReq MSHR miss cycles
system.l2.ReadCleanReq_mshr_miss_latency::total     42341000                       # number of ReadCleanReq MSHR miss cycles
system.l2.ReadCleanReq_mshr_miss_rate::.cpu.inst     0.826630                       # mshr miss rate for ReadCleanReq accesses
system.l2.ReadCleanReq_mshr_miss_rate::total     0.826630                       # mshr miss rate for ReadCleanReq accesses
system.l2.ReadCleanReq_avg_mshr_miss_latency::.cpu.inst 71041.946309                       # average ReadCleanReq mshr miss latency
system.l2.ReadCleanReq_avg_mshr_miss_latency::total 71041.946309                       # average ReadCleanReq mshr miss latency
system.l2.ReadSharedReq_hits::.cpu.data            64                       # number of ReadSharedReq hits
system.l2.ReadSharedReq_hits::total                64                       # number of ReadSharedReq hits
system.l2.ReadSharedReq_misses::.cpu.data          286                       # number of ReadSharedReq misses
system.l2.ReadSharedReq_misses::total             286                       # number of ReadSharedReq misses
system.l2.ReadSharedReq_miss_latency::.cpu.data     24992500                       # number of ReadSharedReq miss cycles
system.l2.ReadSharedReq_miss_latency::total     24992500                       # number of ReadSharedReq miss cycles
system.l2.ReadSharedReq_accesses::.cpu.data          350                       # number of ReadSharedReq accesses(hits+misses)
system.l2.ReadSharedReq_accesses::total           350                       # number of ReadSharedReq accesses(hits+misses)
system.l2.ReadSharedReq_miss_rate::.cpu.data     0.817143                       # miss rate for ReadSharedReq accesses
system.l2.ReadSharedReq_miss_rate::total     0.817143                       # miss rate for ReadSharedReq accesses
system.l2.ReadSharedReq_avg_miss_latency::.cpu.data 87386.363636                       # average ReadSharedReq miss latency
system.l2.ReadSharedReq_avg_miss_latency::total 87386.363636                       # average ReadSharedReq miss latency
system.l2.ReadSharedReq_mshr_hits::.cpu.data            5                       # number of ReadSharedReq MSHR hits
system.l2.ReadSharedReq_mshr_hits::total            5                       # number of ReadSharedReq MSHR hits
system.l2.ReadSharedReq_mshr_misses::.cpu.data          281                       # number of ReadSharedReq MSHR misses
system.l2.ReadSharedReq_mshr_misses::total          281                       # number of ReadSharedReq MSHR misses
system.l2.ReadSharedReq_mshr_miss_latency::.cpu.data     21596000                       # number of ReadSharedReq MSHR miss cycles
system.l2.ReadSharedReq_mshr_miss_latency::total     21596000                       # number of ReadSharedReq MSHR miss cycles
system.l2.ReadSharedReq_mshr_miss_rate::.cpu.data     0.802857                       # mshr miss rate for ReadSharedReq accesses
system.l2.ReadSharedReq_mshr_miss_rate::total     0.802857                       # mshr miss rate for ReadSharedReq accesses
system.l2.ReadSharedReq_avg_mshr_miss_latency::.cpu.data 76854.092527                       # average ReadSharedReq mshr miss latency
system.l2.ReadSharedReq_avg_mshr_miss_latency::total 76854.092527                       # average ReadSharedReq mshr miss latency
system.l2.tags.pwrStateResidencyTicks::UNDEFINED 513651095500                       # Cumulative time (in ticks) in various power states
system.l2.tags.tagsinuse                 16285.479996                       # Cycle average of tags in use
system.l2.tags.total_refs                    10526899                       # Total number of references to valid blocks.
system.l2.tags.sampled_refs                   5264048                       # Sample count of references to valid blocks.
system.l2.tags.avg_refs                      1.999773                       # Average number of references to valid blocks.
system.l2.tags.warmup_cycle                     77000                       # Cycle when the warmup percentage was hit.
system.l2.tags.occ_blocks::.writebacks       0.398275                       # Average occupied blocks per requestor
system.l2.tags.occ_blocks::.cpu.inst         3.524688                       # Average occupied blocks per requestor
system.l2.tags.occ_blocks::.cpu.data     16281.557033                       # Average occupied blocks per requestor
system.l2.tags.occ_percent::.writebacks      0.000024                       # Average percentage of cache occupancy
system.l2.tags.occ_percent::.cpu.inst        0.000215                       # Average percentage of cache occupancy
system.l2.tags.occ_percent::.cpu.data        0.993747                       # Average percentage of cache occupancy
system.l2.tags.occ_percent::total            0.993987                       # Average percentage of cache occupancy
system.l2.tags.occ_task_id_blocks::1024         16384                       # Occupied blocks per task id
system.l2.tags.age_task_id_blocks_1024::0          104                       # Occupied blocks per task id
system.l2.tags.age_task_id_blocks_1024::1          927                       # Occupied blocks per task id
system.l2.tags.age_task_id_blocks_1024::2         9268                       # Occupied blocks per task id
system.l2.tags.age_task_id_blocks_1024::3         6085                       # Occupied blocks per task id
system.l2.tags.occ_task_id_percent::1024            1                       # Percentage of cache occupancy per task id
system.l2.tags.tag_accesses                  89479296                       # Number of tag accesses
system.l2.tags.data_accesses                 89479296                       # Number of data accesses
system.cpu_voltage_domain.voltage                   1                       # Voltage in Volts
system.mem_ctrls.pwrStateResidencyTicks::UNDEFINED 513651095500                       # Cumulative time (in ticks) in various power states
system.mem_ctrls.bytes_read::.cpu.inst          38144                       # Number of bytes read from this memory
system.mem_ctrls.bytes_read::.cpu.data      336851584                       # Number of bytes read from this memory
system.mem_ctrls.bytes_read::total          336889728                       # Number of bytes read from this memory
system.mem_ctrls.bytes_inst_read::.cpu.inst        38144                       # Number of instructions bytes read from this memory
system.mem_ctrls.bytes_inst_read::total         38144                       # Number of instructions bytes read from this memory
system.mem_ctrls.bytes_written::.writebacks    335786816                       # Number of bytes written to this memory
system.mem_ctrls.bytes_written::total       335786816                       # Number of bytes written to this memory
system.mem_ctrls.num_reads::.cpu.inst             596                       # Number of read requests responded to by this memory
system.mem_ctrls.num_reads::.cpu.data         5263306                       # Number of read requests responded to by this memory
system.mem_ctrls.num_reads::total             5263902                       # Number of read requests responded to by this memory
system.mem_ctrls.num_writes::.writebacks      5246669                       # Number of write requests responded to by this memory
system.mem_ctrls.num_writes::total            5246669                       # Number of write requests responded to by this memory
system.mem_ctrls.bw_read::.cpu.inst             74261                       # Total read bandwidth from this memory (bytes/s)
system.mem_ctrls.bw_read::.cpu.data         655798434                       # Total read bandwidth from this memory (bytes/s)
system.mem_ctrls.bw_read::total             655872694                       # Total read bandwidth from this memory (bytes/s)
system.mem_ctrls.bw_inst_read::.cpu.inst        74261                       # Instruction read bandwidth from this memory (bytes/s)
system.mem_ctrls.bw_inst_read::total            74261                       # Instruction read bandwidth from this memory (bytes/s)
system.mem_ctrls.bw_write::.writebacks      653725494                       # Write bandwidth from this memory (bytes/s)
system.mem_ctrls.bw_write::total            653725494                       # Write bandwidth from this memory (bytes/s)
system.mem_ctrls.bw_total::.writebacks      653725494                       # Total bandwidth to/from this memory (bytes/s)
system.mem_ctrls.bw_total::.cpu.inst            74261                       # Total bandwidth to/from this memory (bytes/s)
system.mem_ctrls.bw_total::.cpu.data        655798434                       # Total bandwidth to/from this memory (bytes/s)
system.mem_ctrls.bw_total::total           1309598188                       # Total bandwidth to/from this memory (bytes/s)
system.mem_ctrls.avgPriority_.writebacks::samples   5246669.00                       # Average QoS priority value for accepted requests
system.mem_ctrls.avgPriority_.cpu.inst::samples       596.00                       # Average QoS priority value for accepted requests
system.mem_ctrls.avgPriority_.cpu.data::samples   5263306.00                       # Average QoS priority value for accepted requests
system.mem_ctrls.priorityMinLatency      0.000000018750                       # per QoS priority minimum request to response latency (s)
system.mem_ctrls.priorityMaxLatency      0.000369187750                       # per QoS priority maximum request to response latency (s)
system.mem_ctrls.numReadWriteTurnArounds       327840                       # Number of turnarounds from READ to WRITE
system.mem_ctrls.numWriteReadTurnArounds       327841                       # Number of turnarounds from WRITE to READ
system.mem_ctrls.numStayReadState            15559351                       # Number of times bus staying in READ state
system.mem_ctrls.numStayWriteState            4936639                       # Number of times bus staying in WRITE state
system.mem_ctrls.readReqs                     5263902                       # Number of read requests accepted
system.mem_ctrls.writeReqs                    5246669                       # Number of write requests accepted
system.mem_ctrls.readBursts                   5263902                       # Number of DRAM read bursts, including those serviced by the write queue
system.mem_ctrls.writeBursts                  5246669                       # Number of DRAM write bursts, including those merged in the write queue
system.mem_ctrls.servicedByWrQ                      0                       # Number of DRAM read bursts serviced by the write queue
system.mem_ctrls.mergedWrBursts                     0                       # Number of DRAM write bursts merged with an existing one
system.mem_ctrls.neitherReadNorWriteReqs            0                       # Number of requests that are neither read nor write
system.mem_ctrls.perBankRdBursts::0            329032                       # Per bank write bursts
system.mem_ctrls.perBankRdBursts::1            329054                       # Per bank write bursts
system.mem_ctrls.perBankRdBursts::2            329094                       # Per bank write bursts
system.mem_ctrls.perBankRdBursts::3            329070                       # Per bank write bursts
system.mem_ctrls.perBankRdBursts::4            329023                       # Per bank write bursts
system.mem_ctrls.perBankRdBursts::5            329065                       # Per bank write bursts
system.mem_ctrls.perBankRdBursts::6            329081                       # Per bank write bursts
system.mem_ctrls.perBankRdBursts::7            328937                       # Per bank write bursts
system.mem_ctrls.perBankRdBursts::8            328899                       # Per bank write bursts
system.mem_ctrls.perBankRdBursts::9            328869                       # Per bank write bursts
system.mem_ctrls.perBankRdBursts::10           328834                       # Per bank write bursts
system.mem_ctrls.perBankRdBursts::11           329034                       # Per bank write bursts
system.mem_ctrls.perBankRdBursts::12           329023                       # Per bank write bursts
system.mem_ctrls.perBankRdBursts::13           329024                       # Per bank write bursts
system.mem_ctrls.perBankRdBursts::14           328987                       # Per bank write bursts
system.mem_ctrls.perBankRdBursts::15           328876                       # Per bank write bursts
system.mem_ctrls.perBankWrBursts::0            327881                       # Per bank write bursts
system.mem_ctrls.perBankWrBursts::1            327930                       # Per bank write bursts
system.mem_ctrls.perBankWrBursts::2            328028                       # Per bank write bursts
system.mem_ctrls.perBankWrBursts::3            328016                       # Per bank write bursts
system.mem_ctrls.perBankWrBursts::4            327993                       # Per bank write bursts
system.mem_ctrls.perBankWrBursts::5            327997                       # Per bank write bursts
system.mem_ctrls.perBankWrBursts::6            328010                       # Per bank write bursts
system.mem_ctrls.perBankWrBursts::7            327895                       # Per bank write bursts
system.mem_ctrls.perBankWrBursts::8            327808                       # Per bank write bursts
system.mem_ctrls.perBankWrBursts::9            327808                       # Per bank write bursts
system.mem_ctrls.perBankWrBursts::10           327738                       # Per bank write bursts
system.mem_ctrls.perBankWrBursts::11           327953                       # Per bank write bursts
system.mem_ctrls.perBankWrBursts::12           327954                       # Per bank write bursts
system.mem_ctrls.perBankWrBursts::13           327936                       # Per bank write bursts
system.mem_ctrls.perBankWrBursts::14           327873                       # Per bank write bursts
system.mem_ctrls.perBankWrBursts::15           327823                       # Per bank write bursts
system.mem_ctrls.avgRdQLen                       1.01                       # Average read queue length when enqueuing
system.mem_ctrls.avgWrQLen                      25.92                       # Average write queue length when enqueuing
system.mem_ctrls.totQLat                  58212452250                       # Total ticks spent queuing
system.mem_ctrls.totBusLat                26319510000                       # Total ticks spent in databus transfers
system.mem_ctrls.totMemAccLat            156910614750                       # Total ticks spent from burst creation until serviced by the DRAM
system.mem_ctrls.avgQLat                     11058.80                       # Average queueing delay per DRAM burst
system.mem_ctrls.avgBusLat                    5000.00                       # Average bus latency per DRAM burst
system.mem_ctrls.avgMemAccLat                29808.80                       # Average memory access latency per DRAM burst
system.mem_ctrls.numRdRetry                         0                       # Number of times read queue was full causing retry
system.mem_ctrls.numWrRetry                         0                       # Number of times write queue was full causing retry
system.mem_ctrls.readRowHits                  4839093                       # Number of row buffer hits during reads
system.mem_ctrls.writeRowHits                 4869944                       # Number of row buffer hits during writes
system.mem_ctrls.readRowHitRate                 91.93                       # Row buffer hit rate for reads
system.mem_ctrls.writeRowHitRate                92.82                       # Row buffer hit rate for writes
system.mem_ctrls.readPktSize::0                     0                       # Read request sizes (log2)
system.mem_ctrls.readPktSize::1                     0                       # Read request sizes (log2)
system.mem_ctrls.readPktSize::2                     0                       # Read request sizes (log2)
system.mem_ctrls.readPktSize::3                     0                       # Read request sizes (log2)
system.mem_ctrls.readPktSize::4                     0                       # Read request sizes (log2)
system.mem_ctrls.readPktSize::5                     0                       # Read request sizes (log2)
system.mem_ctrls.readPktSize::6               5263902                       # Read request sizes (log2)
system.mem_ctrls.writePktSize::0                    0                       # Write request sizes (log2)
system.mem_ctrls.writePktSize::1                    0                       # Write request sizes (log2)
system.mem_ctrls.writePktSize::2                    0                       # Write request sizes (log2)
system.mem_ctrls.writePktSize::3                    0                       # Write request sizes (log2)
system.mem_ctrls.writePktSize::4                    0                       # Write request sizes (log2)
system.mem_ctrls.writePktSize::5                    0                       # Write request sizes (log2)
system.mem_ctrls.writePktSize::6              5246669                       # Write request sizes (log2)
system.mem_ctrls.rdQLenPdf::0                 5262915                       # What read queue length does an incoming req see
system.mem_ctrls.rdQLenPdf::1                     959                       # What read queue length does an incoming req see
system.mem_ctrls.rdQLenPdf::2                      25                       # What read queue length does an incoming req see
system.mem_ctrls.rdQLenPdf::3                       2                       # What read queue length does an incoming req see
system.mem_ctrls.rdQLenPdf::4                       1                       # What read queue length does an incoming req see
system.mem_ctrls.rdQLenPdf::5                       0                       # What read queue length does an incoming req see
system.mem_ctrls.rdQLenPdf::6                       0                       # What read queue length does an incoming req see
system.mem_ctrls.rdQLenPdf::7                       0                       # What read queue length does an incoming req see
system.mem_ctrls.rdQLenPdf::8                       0                       # What read queue length does an incoming req see
system.mem_ctrls.rdQLenPdf::9                       0                       # What read queue length does an incoming req see
system.mem_ctrls.rdQLenPdf::10                      0                       # What read queue length does an incoming req see
system.mem_ctrls.rdQLenPdf::11                      0                       # What read queue length does an incoming req see
system.mem_ctrls.rdQLenPdf::12                      0                       # What read queue length does an incoming req see
system.mem_ctrls.rdQLenPdf::13                      0                       # What read queue length does an incoming req see
system.mem_ctrls.rdQLenPdf::14                      0                       # What read queue length does an incoming req see
system.mem_ctrls.rdQLenPdf::15                      0                       # What read queue length does an incoming req see
system.mem_ctrls.rdQLenPdf::16                      0                       # What read queue length does an incoming req see
system.mem_ctrls.rdQLenPdf::17                      0                       # What read queue length does an incoming req see
system.mem_ctrls.rdQLenPdf::18                      0                       # What read queue length does an incoming req see
system.mem_ctrls.rdQLenPdf::19                      0                       # What read queue length does an incoming req see
system.mem_ctrls.rdQLenPdf::20                      0                       # What read queue length does an incoming req see
system.mem_ctrls.rdQLenPdf::21                      0                       # What read queue length does an incoming req see
system.mem_ctrls.rdQLenPdf::22                      0                       # What read queue length does an incoming req see
system.mem_ctrls.rdQLenPdf::23                      0                       # What read queue length does an incoming req see
system.mem_ctrls.rdQLenPdf::24                      0                       # What read queue length does an incoming req see
system.mem_ctrls.rdQLenPdf::25                      0                       # What read queue length does an incoming req see
system.mem_ctrls.rdQLenPdf::26                      0                       # What read queue length does an incoming req see
system.mem_ctrls.rdQLenPdf::27                      0                       # What read queue length does an incoming req see
system.mem_ctrls.rdQLenPdf::28                      0                       # What read queue length does an incoming req see
system.mem_ctrls.rdQLenPdf::29                      0                       # What read queue length does an incoming req see
system.mem_ctrls.rdQLenPdf::30                      0                       # What read queue length does an incoming req see
system.mem_ctrls.rdQLenPdf::31                      0                       # What read queue length does an incoming req see
system.mem_ctrls.wrQLenPdf::0                       1                       # What write queue length does an incoming req see
system.mem_ctrls.wrQLenPdf::1                       1                       # What write queue length does an incoming req see
system.mem_ctrls.wrQLenPdf::2                       1                       # What write queue length does an incoming req see
system.mem_ctrls.wrQLenPdf::3                       1                       # What write queue length does an incoming req see
system.mem_ctrls.wrQLenPdf::4                       1                       # What write queue length does an incoming req see
system.mem_ctrls.wrQLenPdf::5                       1                       # What write queue length does an incoming req see
system.mem_ctrls.wrQLenPdf::6                       1                       # What write queue length does an incoming req see
system.mem_ctrls.wrQLenPdf::7                       1                       # What write queue length does an incoming req see
system.mem_ctrls.wrQLenPdf::8                       1                       # What write queue length does an incoming req see
system.mem_ctrls.wrQLenPdf::9                       1                       # What write queue length does an incoming req see
system.mem_ctrls.wrQLenPdf::10                      1                       # What write queue length does an incoming req see
system.mem_ctrls.wrQLenPdf::11                      1                       # What write queue length does an incoming req see
system.mem_ctrls.wrQLenPdf::12                      1                       # What write queue length does an incoming req see
system.mem_ctrls.wrQLenPdf::13                      1                       # What write queue length does an incoming req see
system.mem_ctrls.wrQLenPdf::14                      1                       # What write queue length does an incoming req see
system.mem_ctrls.wrQLenPdf::15                    397                       # What write queue length does an incoming req see
system.mem_ctrls.wrQLenPdf::16                    401                       # What write queue length does an incoming req see
system.mem_ctrls.wrQLenPdf::17                 324303                       # What write queue length does an incoming req see
system.mem_ctrls.wrQLenPdf::18                 327842                       # What write queue length does an incoming req see
system.mem_ctrls.wrQLenPdf::19                 327847                       # What write queue length does an incoming req see
system.mem_ctrls.wrQLenPdf::20                 327842                       # What write queue length does an incoming req see
system.mem_ctrls.wrQLenPdf::21                 327843                       # What write queue length does an incoming req see
system.mem_ctrls.wrQLenPdf::22                 327841                       # What write queue length does an incoming req see
system.mem_ctrls.wrQLenPdf::23                 327866                       # What write queue length does an incoming req see
system.mem_ctrls.wrQLenPdf::24                 327842                       # What write queue length does an incoming req see
system.mem_ctrls.wrQLenPdf::25                 331730                       # What write queue length does an incoming req see
system.mem_ctrls.wrQLenPdf::26                 327842                       # What write queue length does an incoming req see
system.mem_ctrls.wrQLenPdf::27                 327843                       # What write queue length does an incoming req see
system.mem_ctrls.wrQLenPdf::28                 327843                       # What write queue length does an incoming req see
system.mem_ctrls.wrQLenPdf::29                 327844                       # What write queue length does an incoming req see
system.mem_ctrls.wrQLenPdf::30                 327842                       # What write queue length does an incoming req see
system.mem_ctrls.wrQLenPdf::31                 327845                       # What write queue length does an incoming req see
system.mem_ctrls.wrQLenPdf::32                 327841                       # What write queue length does an incoming req see
system.mem_ctrls.wrQLenPdf::33                      0                       # What write queue length does an incoming req see
system.mem_ctrls.wrQLenPdf::34                      0                       # What write queue length does an incoming req see
system.mem_ctrls.wrQLenPdf::35                      0                       # What write queue length does an incoming req see
system.mem_ctrls.wrQLenPdf::36                      0                       # What write queue length does an incoming req see
system.mem_ctrls.wrQLenPdf::37                      0                       # What write queue length does an incoming req see
system.mem_ctrls.wrQLenPdf::38                      0                       # What write queue length does an incoming req see
system.mem_ctrls.wrQLenPdf::39                      0                       # What write queue length does an incoming req see
system.mem_ctrls.wrQLenPdf::40                      0                       # What write queue length does an incoming req see
system.mem_ctrls.wrQLenPdf::41                      0                       # What write queue length does an incoming req see
system.mem_ctrls.wrQLenPdf::42                      0                       # What write queue length does an incoming req see
system.mem_ctrls.wrQLenPdf::43                      0                       # What write queue length does an incoming req see
system.mem_ctrls.wrQLenPdf::44                      0                       # What write queue length does an incoming req see
system.mem_ctrls.wrQLenPdf::45                      0                       # What write queue length does an incoming req see
system.mem_ctrls.wrQLenPdf::46                      0                       # What write queue length does an incoming req see
system.mem_ctrls.wrQLenPdf::47                      0                       # What write queue length does an incoming req see
system.mem_ctrls.wrQLenPdf::48                      0                       # What write queue length does an incoming req see
system.mem_ctrls.wrQLenPdf::49                      0                       # What write queue length does an incoming req see
system.mem_ctrls.wrQLenPdf::50                      0                       # What write queue length does an incoming req see
system.mem_ctrls.wrQLenPdf::51                      0                       # What write queue length does an incoming req see
system.mem_ctrls.wrQLenPdf::52                      0                       # What write queue length does an incoming req see
system.mem_ctrls.wrQLenPdf::53                      0                       # What write queue length does an incoming req see
system.mem_ctrls.wrQLenPdf::54                      0                       # What write queue length does an incoming req see
system.mem_ctrls.wrQLenPdf::55                      0                       # What write queue length does an incoming req see
system.mem_ctrls.wrQLenPdf::56                      0                       # What write queue length does an incoming req see
system.mem_ctrls.wrQLenPdf::57                      0                       # What write queue length does an incoming req see
system.mem_ctrls.wrQLenPdf::58                      0                       # What write queue length does an incoming req see
system.mem_ctrls.wrQLenPdf::59                      0                       # What write queue length does an incoming req see
system.mem_ctrls.wrQLenPdf::60                      0                       # What write queue length does an incoming req see
system.mem_ctrls.wrQLenPdf::61                      0                       # What write queue length does an incoming req see
system.mem_ctrls.wrQLenPdf::62                      0                       # What write queue length does an incoming req see
system.mem_ctrls.wrQLenPdf::63                      0                       # What write queue length does an incoming req see
system.mem_ctrls.bytesPerActivate::samples       801506                       # Bytes accessed per row activation
system.mem_ctrls.bytesPerActivate::mean    839.262888                       # Bytes accessed per row activation
system.mem_ctrls.bytesPerActivate::gmean   746.122829                       # Bytes accessed per row activation
system.mem_ctrls.bytesPerActivate::stdev   290.708867                       # Bytes accessed per row activation
system.mem_ctrls.bytesPerActivate::0-127        16393      2.05%      2.05% # Bytes accessed per row activation
system.mem_ctrls.bytesPerActivate::128-255        26852      3.35%      5.40% # Bytes accessed per row activation
system.mem_ctrls.bytesPerActivate::256-383        42392      5.29%     10.68% # Bytes accessed per row activation
system.mem_ctrls.bytesPerActivate::384-511        42409      5.29%     15.98% # Bytes accessed per row activation
system.mem_ctrls.bytesPerActivate::512-639        62023      7.74%     23.71% # Bytes accessed per row activation
system.mem_ctrls.bytesPerActivate::640-767        36160      4.51%     28.23% # Bytes accessed per row activation
system.mem_ctrls.bytesPerActivate::768-895        30452      3.80%     32.02% # Bytes accessed per row activation
system.mem_ctrls.bytesPerActivate::896-1023        22465      2.80%     34.83% # Bytes accessed per row activation
system.mem_ctrls.bytesPerActivate::1024-1151       522360     65.17%    100.00% # Bytes accessed per row activation
system.mem_ctrls.bytesPerActivate::total       801506                       # Bytes accessed per row activation
system.mem_ctrls.rdPerTurnAround::samples       327841                       # Reads before turning the bus around for writes
system.mem_ctrls.rdPerTurnAround::mean      16.056265                       # Reads before turning the bus around for writes
system.mem_ctrls.rdPerTurnAround::gmean     16.006638                       # Reads before turning the bus around for writes
system.mem_ctrls.rdPerTurnAround::stdev     23.844448                       # Reads before turning the bus around for writes
system.mem_ctrls.rdPerTurnAround::0-511        327839    100.00%    100.00% # Reads before turning the bus around for writes
system.mem_ctrls.rdPerTurnAround::512-1023            1      0.00%    100.00% # Reads before turning the bus around for writes
system.mem_ctrls.rdPerTurnAround::13312-13823            1      0.00%    100.00% # Reads before turning the bus around for writes
system.mem_ctrls.rdPerTurnAround::total        327841                       # Reads before turning the bus around for writes
system.mem_ctrls.wrPerTurnAround::samples       327840                       # Writes before turning the bus around for reads
system.mem_ctrls.wrPerTurnAround::mean      16.003648                       # Writes before turning the bus around for reads
[...]
system.cpu.icache.ReadReq_miss_rate::.cpu.inst     0.000023                       # miss rate for ReadReq accesses
system.cpu.icache.ReadReq_miss_rate::total     0.000023                       # miss rate for ReadReq accesses
system.cpu.icache.ReadReq_avg_miss_latency::.cpu.inst 71481.276006                       # average ReadReq miss latency
system.cpu.icache.ReadReq_avg_miss_latency::total 71481.276006                       # average ReadReq miss latency
system.cpu.icache.ReadReq_mshr_misses::.cpu.inst          721                       # number of ReadReq MSHR misses
system.cpu.icache.ReadReq_mshr_misses::total          721                       # number of ReadReq MSHR misses
system.cpu.icache.ReadReq_mshr_miss_latency::.cpu.inst     50817000                       # number of ReadReq MSHR miss cycles
system.cpu.icache.ReadReq_mshr_miss_latency::total     50817000                       # number of ReadReq MSHR miss cycles
system.cpu.icache.ReadReq_mshr_miss_rate::.cpu.inst     0.000023                       # mshr miss rate for ReadReq accesses
system.cpu.icache.ReadReq_mshr_miss_rate::total     0.000023                       # mshr miss rate for ReadReq accesses
system.cpu.icache.ReadReq_avg_mshr_miss_latency::.cpu.inst 70481.276006                       # average ReadReq mshr miss latency
system.cpu.icache.ReadReq_avg_mshr_miss_latency::total 70481.276006                       # average ReadReq mshr miss latency
system.cpu.icache.tags.pwrStateResidencyTicks::UNDEFINED 513651095500                       # Cumulative time (in ticks) in various power states
system.cpu.icache.tags.tagsinuse           244.675321                       # Cycle average of tags in use
system.cpu.icache.tags.total_refs            31870306                       # Total number of references to valid blocks.
system.cpu.icache.tags.sampled_refs               721                       # Sample count of references to valid blocks.
system.cpu.icache.tags.avg_refs          44202.920943                       # Average number of references to valid blocks.
system.cpu.icache.tags.warmup_cycle             87500                       # Cycle when the warmup percentage was hit.
system.cpu.icache.tags.occ_blocks::.cpu.inst   244.675321                       # Average occupied blocks per requestor
system.cpu.icache.tags.occ_percent::.cpu.inst     0.955763                       # Average percentage of cache occupancy
system.cpu.icache.tags.occ_percent::total     0.955763                       # Average percentage of cache occupancy
system.cpu.icache.tags.occ_task_id_blocks::1024          256                       # Occupied blocks per task id
system.cpu.icache.tags.age_task_id_blocks_1024::4          256                       # Occupied blocks per task id
system.cpu.icache.tags.occ_task_id_percent::1024            1                       # Percentage of cache occupancy per task id
system.cpu.icache.tags.tag_accesses          63741333                       # Number of tag accesses
system.cpu.icache.tags.data_accesses         63741333                       # Number of data accesses
system.cpu.dtb.walker.pwrStateResidencyTicks::UNDEFINED 513651095500                       # Cumulative time (in ticks) in various power states
system.cpu.dtb.stage2_mmu.stage2_tlb.walker.pwrStateResidencyTicks::UNDEFINED 513651095500                       # Cumulative time (in ticks) in various power states
system.cpu.dcache.pwrStateResidencyTicks::UNDEFINED 513651095500                       # Cumulative time (in ticks) in various power states
system.cpu.dcache.demand_hits::.cpu.data     75856904                       # number of demand (read+write) hits
system.cpu.dcache.demand_hits::total         75856904                       # number of demand (read+write) hits
system.cpu.dcache.overall_hits::.cpu.data     75856937                       # number of overall hits
system.cpu.dcache.overall_hits::total        75856937                       # number of overall hits
system.cpu.dcache.demand_misses::.cpu.data     10523820                       # number of demand (read+write) misses
system.cpu.dcache.demand_misses::total       10523820                       # number of demand (read+write) misses
system.cpu.dcache.overall_misses::.cpu.data     10523858                       # number of overall misses
system.cpu.dcache.overall_misses::total      10523858                       # number of overall misses
system.cpu.dcache.demand_miss_latency::.cpu.data 876796430499                       # number of demand (read+write) miss cycles
system.cpu.dcache.demand_miss_latency::total 876796430499                       # number of demand (read+write) miss cycles
system.cpu.dcache.overall_miss_latency::.cpu.data 876796430499                       # number of overall miss cycles
system.cpu.dcache.overall_miss_latency::total 876796430499                       # number of overall miss cycles
system.cpu.dcache.demand_accesses::.cpu.data     86380724                       # number of demand (read+write) accesses
system.cpu.dcache.demand_accesses::total     86380724                       # number of demand (read+write) accesses
system.cpu.dcache.overall_accesses::.cpu.data     86380795                       # number of overall (read+write) accesses
system.cpu.dcache.overall_accesses::total     86380795                       # number of overall (read+write) accesses
system.cpu.dcache.demand_miss_rate::.cpu.data     0.121831                       # miss rate for demand accesses
system.cpu.dcache.demand_miss_rate::total     0.121831                       # miss rate for demand accesses
system.cpu.dcache.overall_miss_rate::.cpu.data     0.121831                       # miss rate for overall accesses
system.cpu.dcache.overall_miss_rate::total     0.121831                       # miss rate for overall accesses
system.cpu.dcache.demand_avg_miss_latency::.cpu.data 83315.414982                       # average overall miss latency
system.cpu.dcache.demand_avg_miss_latency::total 83315.414982                       # average overall miss latency
system.cpu.dcache.overall_avg_miss_latency::.cpu.data 83315.114143                       # average overall miss latency
system.cpu.dcache.overall_avg_miss_latency::total 83315.114143                       # average overall miss latency
system.cpu.dcache.blocked_cycles::no_mshrs          334                       # number of cycles access was blocked
system.cpu.dcache.blocked_cycles::no_targets            0                       # number of cycles access was blocked
system.cpu.dcache.blocked::no_mshrs                 5                       # number of cycles access was blocked
system.cpu.dcache.blocked::no_targets               0                       # number of cycles access was blocked
system.cpu.dcache.avg_blocked_cycles::no_mshrs    66.800000                       # average number of cycles each access was blocked
system.cpu.dcache.avg_blocked_cycles::no_targets          nan                       # average number of cycles each access was blocked
system.cpu.dcache.writebacks::.writebacks      5262066                       # number of writebacks
system.cpu.dcache.writebacks::total           5262066                       # number of writebacks
system.cpu.dcache.demand_mshr_hits::.cpu.data      5260451                       # number of demand (read+write) MSHR hits
system.cpu.dcache.demand_mshr_hits::total      5260451                       # number of demand (read+write) MSHR hits
system.cpu.dcache.overall_mshr_hits::.cpu.data      5260451                       # number of overall MSHR hits
system.cpu.dcache.overall_mshr_hits::total      5260451                       # number of overall MSHR hits
system.cpu.dcache.demand_mshr_misses::.cpu.data      5263369                       # number of demand (read+write) MSHR misses
system.cpu.dcache.demand_mshr_misses::total      5263369                       # number of demand (read+write) MSHR misses
system.cpu.dcache.overall_mshr_misses::.cpu.data      5263402                       # number of overall MSHR misses
system.cpu.dcache.overall_mshr_misses::total      5263402                       # number of overall MSHR misses
system.cpu.dcache.demand_mshr_miss_latency::.cpu.data 431945474000                       # number of demand (read+write) MSHR miss cycles
system.cpu.dcache.demand_mshr_miss_latency::total 431945474000                       # number of demand (read+write) MSHR miss cycles
system.cpu.dcache.overall_mshr_miss_latency::.cpu.data 431948270000                       # number of overall MSHR miss cycles
system.cpu.dcache.overall_mshr_miss_latency::total 431948270000                       # number of overall MSHR miss cycles
system.cpu.dcache.demand_mshr_miss_rate::.cpu.data     0.060932                       # mshr miss rate for demand accesses
system.cpu.dcache.demand_mshr_miss_rate::total     0.060932                       # mshr miss rate for demand accesses
system.cpu.dcache.overall_mshr_miss_rate::.cpu.data     0.060933                       # mshr miss rate for overall accesses
system.cpu.dcache.overall_mshr_miss_rate::total     0.060933                       # mshr miss rate for overall accesses
system.cpu.dcache.demand_avg_mshr_miss_latency::.cpu.data 82066.348379                       # average overall mshr miss latency
system.cpu.dcache.demand_avg_mshr_miss_latency::total 82066.348379                       # average overall mshr miss latency
system.cpu.dcache.overall_avg_mshr_miss_latency::.cpu.data 82066.365062                       # average overall mshr miss latency
system.cpu.dcache.overall_avg_mshr_miss_latency::total 82066.365062                       # average overall mshr miss latency
system.cpu.dcache.replacements                5262377                       # number of replacements
system.cpu.dcache.ReadReq_hits::.cpu.data      2043775                       # number of ReadReq hits
system.cpu.dcache.ReadReq_hits::total         2043775                       # number of ReadReq hits
system.cpu.dcache.ReadReq_misses::.cpu.data          335                       # number of ReadReq misses
system.cpu.dcache.ReadReq_misses::total           335                       # number of ReadReq misses
system.cpu.dcache.ReadReq_miss_latency::.cpu.data     25120000                       # number of ReadReq miss cycles
system.cpu.dcache.ReadReq_miss_latency::total     25120000                       # number of ReadReq miss cycles
system.cpu.dcache.ReadReq_accesses::.cpu.data      2044110                       # number of ReadReq accesses(hits+misses)
system.cpu.dcache.ReadReq_accesses::total      2044110                       # number of ReadReq accesses(hits+misses)
system.cpu.dcache.ReadReq_miss_rate::.cpu.data     0.000164                       # miss rate for ReadReq accesses
system.cpu.dcache.ReadReq_miss_rate::total     0.000164                       # miss rate for ReadReq accesses
system.cpu.dcache.ReadReq_avg_miss_latency::.cpu.data 74985.074627                       # average ReadReq miss latency
system.cpu.dcache.ReadReq_avg_miss_latency::total 74985.074627                       # average ReadReq miss latency
system.cpu.dcache.ReadReq_mshr_hits::.cpu.data           18                       # number of ReadReq MSHR hits
system.cpu.dcache.ReadReq_mshr_hits::total           18                       # number of ReadReq MSHR hits
system.cpu.dcache.ReadReq_mshr_misses::.cpu.data          317                       # number of ReadReq MSHR misses
system.cpu.dcache.ReadReq_mshr_misses::total          317                       # number of ReadReq MSHR misses
system.cpu.dcache.ReadReq_mshr_miss_latency::.cpu.data     23417500                       # number of ReadReq MSHR miss cycles
system.cpu.dcache.ReadReq_mshr_miss_latency::total     23417500                       # number of ReadReq MSHR miss cycles
system.cpu.dcache.ReadReq_mshr_miss_rate::.cpu.data     0.000155                       # mshr miss rate for ReadReq accesses
system.cpu.dcache.ReadReq_mshr_miss_rate::total     0.000155                       # mshr miss rate for ReadReq accesses
system.cpu.dcache.ReadReq_avg_mshr_miss_latency::.cpu.data 73872.239748                       # average ReadReq mshr miss latency
system.cpu.dcache.ReadReq_avg_mshr_miss_latency::total 73872.239748                       # average ReadReq mshr miss latency
system.cpu.dcache.WriteReq_hits::.cpu.data     73813129                       # number of WriteReq hits
system.cpu.dcache.WriteReq_hits::total       73813129                       # number of WriteReq hits
system.cpu.dcache.WriteReq_misses::.cpu.data     10523485                       # number of WriteReq misses
system.cpu.dcache.WriteReq_misses::total     10523485                       # number of WriteReq misses
system.cpu.dcache.WriteReq_miss_latency::.cpu.data 876771310499                       # number of WriteReq miss cycles
system.cpu.dcache.WriteReq_miss_latency::total 876771310499                       # number of WriteReq miss cycles
system.cpu.dcache.WriteReq_accesses::.cpu.data     84336614                       # number of WriteReq accesses(hits+misses)
system.cpu.dcache.WriteReq_accesses::total     84336614                       # number of WriteReq accesses(hits+misses)
system.cpu.dcache.WriteReq_miss_rate::.cpu.data     0.124780                       # miss rate for WriteReq accesses
system.cpu.dcache.WriteReq_miss_rate::total     0.124780                       # miss rate for WriteReq accesses
system.cpu.dcache.WriteReq_avg_miss_latency::.cpu.data 83315.680167                       # average WriteReq miss latency
system.cpu.dcache.WriteReq_avg_miss_latency::total 83315.680167                       # average WriteReq miss latency
system.cpu.dcache.WriteReq_mshr_hits::.cpu.data      5260433                       # number of WriteReq MSHR hits
system.cpu.dcache.WriteReq_mshr_hits::total      5260433                       # number of WriteReq MSHR hits
system.cpu.dcache.WriteReq_mshr_misses::.cpu.data      5263052                       # number of WriteReq MSHR misses
system.cpu.dcache.WriteReq_mshr_misses::total      5263052                       # number of WriteReq MSHR misses
system.cpu.dcache.WriteReq_mshr_miss_latency::.cpu.data 431922056500                       # number of WriteReq MSHR miss cycles
system.cpu.dcache.WriteReq_mshr_miss_latency::total 431922056500                       # number of WriteReq MSHR miss cycles
system.cpu.dcache.WriteReq_mshr_miss_rate::.cpu.data     0.062405                       # mshr miss rate for WriteReq accesses
system.cpu.dcache.WriteReq_mshr_miss_rate::total     0.062405                       # mshr miss rate for WriteReq accesses
system.cpu.dcache.WriteReq_avg_mshr_miss_latency::.cpu.data 82066.841920                       # average WriteReq mshr miss latency
system.cpu.dcache.WriteReq_avg_mshr_miss_latency::total 82066.841920                       # average WriteReq mshr miss latency
system.cpu.dcache.SoftPFReq_hits::.cpu.data           33                       # number of SoftPFReq hits
system.cpu.dcache.SoftPFReq_hits::total            33                       # number of SoftPFReq hits
system.cpu.dcache.SoftPFReq_misses::.cpu.data           38                       # number of SoftPFReq misses
system.cpu.dcache.SoftPFReq_misses::total           38                       # number of SoftPFReq misses
system.cpu.dcache.SoftPFReq_accesses::.cpu.data           71                       # number of SoftPFReq accesses(hits+misses)
system.cpu.dcache.SoftPFReq_accesses::total           71                       # number of SoftPFReq accesses(hits+misses)
system.cpu.dcache.SoftPFReq_miss_rate::.cpu.data     0.535211                       # miss rate for SoftPFReq accesses
system.cpu.dcache.SoftPFReq_miss_rate::total     0.535211                       # miss rate for SoftPFReq accesses
system.cpu.dcache.SoftPFReq_mshr_misses::.cpu.data           33                       # number of SoftPFReq MSHR misses
system.cpu.dcache.SoftPFReq_mshr_misses::total           33                       # number of SoftPFReq MSHR misses
system.cpu.dcache.SoftPFReq_mshr_miss_latency::.cpu.data      2796000                       # number of SoftPFReq MSHR miss cycles
system.cpu.dcache.SoftPFReq_mshr_miss_latency::total      2796000                       # number of SoftPFReq MSHR miss cycles
system.cpu.dcache.SoftPFReq_mshr_miss_rate::.cpu.data     0.464789                       # mshr miss rate for SoftPFReq accesses
system.cpu.dcache.SoftPFReq_mshr_miss_rate::total     0.464789                       # mshr miss rate for SoftPFReq accesses
system.cpu.dcache.SoftPFReq_avg_mshr_miss_latency::.cpu.data 84727.272727                       # average SoftPFReq mshr miss latency
system.cpu.dcache.SoftPFReq_avg_mshr_miss_latency::total 84727.272727                       # average SoftPFReq mshr miss latency
system.cpu.dcache.LoadLockedReq_hits::.cpu.data           34                       # number of LoadLockedReq hits
system.cpu.dcache.LoadLockedReq_hits::total           34                       # number of LoadLockedReq hits
system.cpu.dcache.LoadLockedReq_accesses::.cpu.data           34                       # number of LoadLockedReq accesses(hits+misses)
system.cpu.dcache.LoadLockedReq_accesses::total           34                       # number of LoadLockedReq accesses(hits+misses)
system.cpu.dcache.StoreCondReq_hits::.cpu.data           34                       # number of StoreCondReq hits
system.cpu.dcache.StoreCondReq_hits::total           34                       # number of StoreCondReq hits
system.cpu.dcache.StoreCondReq_accesses::.cpu.data           34                       # number of StoreCondReq accesses(hits+misses)
system.cpu.dcache.StoreCondReq_accesses::total           34                       # number of StoreCondReq accesses(hits+misses)
system.cpu.dcache.tags.pwrStateResidencyTicks::UNDEFINED 513651095500                       # Cumulative time (in ticks) in various power states
system.cpu.dcache.tags.tagsinuse          1023.583338                       # Cycle average of tags in use
system.cpu.dcache.tags.total_refs            81120406                       # Total number of references to valid blocks.
system.cpu.dcache.tags.sampled_refs           5263401                       # Sample count of references to valid blocks.
system.cpu.dcache.tags.avg_refs             15.412165                       # Average number of references to valid blocks.
system.cpu.dcache.tags.warmup_cycle            176500                       # Cycle when the warmup percentage was hit.
system.cpu.dcache.tags.occ_blocks::.cpu.data  1023.583338                       # Average occupied blocks per requestor
system.cpu.dcache.tags.occ_percent::.cpu.data     0.999593                       # Average percentage of cache occupancy
system.cpu.dcache.tags.occ_percent::total     0.999593                       # Average percentage of cache occupancy
system.cpu.dcache.tags.occ_task_id_blocks::1024         1024                       # Occupied blocks per task id
system.cpu.dcache.tags.age_task_id_blocks_1024::0          105                       # Occupied blocks per task id
system.cpu.dcache.tags.age_task_id_blocks_1024::1          919                       # Occupied blocks per task id
system.cpu.dcache.tags.occ_task_id_percent::1024            1                       # Percentage of cache occupancy per task id
system.cpu.dcache.tags.tag_accesses         178025127                       # Number of tag accesses
system.cpu.dcache.tags.data_accesses        178025127                       # Number of data accesses
system.cpu.itb.walker.pwrStateResidencyTicks::UNDEFINED 513651095500                       # Cumulative time (in ticks) in various power states
system.cpu.itb.stage2_mmu.stage2_tlb.walker.pwrStateResidencyTicks::UNDEFINED 513651095500                       # Cumulative time (in ticks) in various power states

---------- End Simulation Statistics   ----------
